                                  MODFLOW-2005     
      U.S. GEOLOGICAL SURVEY MODULAR FINITE-DIFFERENCE GROUND-WATER FLOW MODEL
                            VERSION 1.12.00 2/3/2017

 LIST FILE: C:/Users/huan1428/Documents/esci5331_hydro_modeling/assignment_5/model_runs/lower_flux/test.lst
                         UNIT    7

 OPENING C:/Users/huan1428/Documents/esci5331_hydro_modeling/assignment_5/model_runs/lower_flux/test_1D.ba6
 FILE TYPE:BAS6   UNIT    8   STATUS:OLD    
 FORMAT:FORMATTED              ACCESS:SEQUENTIAL          

 OPENING C:/Users/huan1428/Documents/esci5331_hydro_modeling/assignment_5/model_runs/lower_flux/test_1D.lpf
 FILE TYPE:LPF   UNIT   11   STATUS:OLD    
 FORMAT:FORMATTED              ACCESS:SEQUENTIAL          

 OPENING C:/Users/huan1428/Documents/esci5331_hydro_modeling/assignment_5/model_runs/lower_flux/test.pcg
 FILE TYPE:PCG   UNIT   19   STATUS:OLD    
 FORMAT:FORMATTED              ACCESS:SEQUENTIAL          

 OPENING C:/Users/huan1428/Documents/esci5331_hydro_modeling/assignment_5/model_runs/lower_flux/test.oc
 FILE TYPE:OC   UNIT   22   STATUS:OLD    
 FORMAT:FORMATTED              ACCESS:SEQUENTIAL          

 OPENING C:/Users/huan1428/Documents/esci5331_hydro_modeling/assignment_5/model_runs/lower_flux/test_1D.dis
 FILE TYPE:DIS   UNIT   10   STATUS:OLD    
 FORMAT:FORMATTED              ACCESS:SEQUENTIAL          

 OPENING C:/Users/huan1428/Documents/esci5331_hydro_modeling/assignment_5/model_runs/lower_flux/test.lmt
 FILE TYPE:LMT6   UNIT   66   STATUS:OLD    
 FORMAT:FORMATTED              ACCESS:SEQUENTIAL          

 OPENING C:/Users/huan1428/Documents/esci5331_hydro_modeling/assignment_5/model_runs/lower_flux/test.bud
 FILE TYPE:DATA(BINARY)   UNIT   34   STATUS:UNKNOWN
 FORMAT:BINARY                 ACCESS:SEQUENTIAL          

 OPENING C:/Users/huan1428/Documents/esci5331_hydro_modeling/assignment_5/model_runs/lower_flux/testhead.dat
 FILE TYPE:DATA(BINARY)   UNIT   51   STATUS:UNKNOWN
 FORMAT:BINARY                 ACCESS:SEQUENTIAL          

 OPENING C:/Users/huan1428/Documents/esci5331_hydro_modeling/assignment_5/model_runs/lower_flux/ibound.dat
 FILE TYPE:DATA   UNIT   52   STATUS:UNKNOWN
 FORMAT:FORMATTED              ACCESS:SEQUENTIAL          

 BAS -- BASIC PACKAGE, VERSION 7, 5/2/2005 INPUT READ FROM UNIT    8
 
 MODFLOW was compiled using mixed precision
 Precision of REAL variables:           6
 Precision of DOUBLE PRECISION variables:          15

 DISCRETIZATION INPUT DATA READ FROM UNIT   10
  200 LAYERS         1 ROWS         1 COLUMNS
    1 STRESS PERIOD(S) IN SIMULATION
 MODEL TIME UNIT IS DAYS
 MODEL LENGTH UNIT IS METERS
  Confining bed flag for each layer:
   0   0   0   0   0   0   0   0   0   0   0   0   0   0   0   0   0   0   0   0
   0   0   0   0   0   0   0   0   0   0   0   0   0   0   0   0   0   0   0   0
   0   0   0   0   0   0   0   0   0   0   0   0   0   0   0   0   0   0   0   0
   0   0   0   0   0   0   0   0   0   0   0   0   0   0   0   0   0   0   0   0
   0   0   0   0   0   0   0   0   0   0   0   0   0   0   0   0   0   0   0   0
   0   0   0   0   0   0   0   0   0   0   0   0   0   0   0   0   0   0   0   0
   0   0   0   0   0   0   0   0   0   0   0   0   0   0   0   0   0   0   0   0
   0   0   0   0   0   0   0   0   0   0   0   0   0   0   0   0   0   0   0   0
   0   0   0   0   0   0   0   0   0   0   0   0   0   0   0   0   0   0   0   0
   0   0   0   0   0   0   0   0   0   0   0   0   0   0   0   0   0   0   0   0

                     DELR =  0.300000    

                     DELC =  0.300000    

 TOP ELEVATION OF LAYER 1 =   0.00000    

   MODEL LAYER BOTTOM EL. = -5.000000E-03 FOR LAYER   1

   MODEL LAYER BOTTOM EL. = -1.000000E-02 FOR LAYER   2

   MODEL LAYER BOTTOM EL. = -1.500000E-02 FOR LAYER   3

   MODEL LAYER BOTTOM EL. = -2.000000E-02 FOR LAYER   4

   MODEL LAYER BOTTOM EL. = -2.500000E-02 FOR LAYER   5

   MODEL LAYER BOTTOM EL. = -3.000000E-02 FOR LAYER   6

   MODEL LAYER BOTTOM EL. = -3.500000E-02 FOR LAYER   7

   MODEL LAYER BOTTOM EL. = -4.000000E-02 FOR LAYER   8

   MODEL LAYER BOTTOM EL. = -4.500000E-02 FOR LAYER   9

   MODEL LAYER BOTTOM EL. = -5.000000E-02 FOR LAYER  10

   MODEL LAYER BOTTOM EL. = -5.500000E-02 FOR LAYER  11

   MODEL LAYER BOTTOM EL. = -6.000000E-02 FOR LAYER  12

   MODEL LAYER BOTTOM EL. = -6.500000E-02 FOR LAYER  13

   MODEL LAYER BOTTOM EL. = -7.000000E-02 FOR LAYER  14

   MODEL LAYER BOTTOM EL. = -7.500000E-02 FOR LAYER  15

   MODEL LAYER BOTTOM EL. = -8.000000E-02 FOR LAYER  16

   MODEL LAYER BOTTOM EL. = -8.500000E-02 FOR LAYER  17

   MODEL LAYER BOTTOM EL. = -9.000000E-02 FOR LAYER  18

   MODEL LAYER BOTTOM EL. = -9.500000E-02 FOR LAYER  19

   MODEL LAYER BOTTOM EL. = -0.100000     FOR LAYER  20

   MODEL LAYER BOTTOM EL. = -0.105000     FOR LAYER  21

   MODEL LAYER BOTTOM EL. = -0.110000     FOR LAYER  22

   MODEL LAYER BOTTOM EL. = -0.115000     FOR LAYER  23

   MODEL LAYER BOTTOM EL. = -0.120000     FOR LAYER  24

   MODEL LAYER BOTTOM EL. = -0.125000     FOR LAYER  25

   MODEL LAYER BOTTOM EL. = -0.130000     FOR LAYER  26

   MODEL LAYER BOTTOM EL. = -0.135000     FOR LAYER  27

   MODEL LAYER BOTTOM EL. = -0.140000     FOR LAYER  28

   MODEL LAYER BOTTOM EL. = -0.145000     FOR LAYER  29

   MODEL LAYER BOTTOM EL. = -0.150000     FOR LAYER  30

   MODEL LAYER BOTTOM EL. = -0.155000     FOR LAYER  31

   MODEL LAYER BOTTOM EL. = -0.160000     FOR LAYER  32

   MODEL LAYER BOTTOM EL. = -0.165000     FOR LAYER  33

   MODEL LAYER BOTTOM EL. = -0.170000     FOR LAYER  34

   MODEL LAYER BOTTOM EL. = -0.175000     FOR LAYER  35

   MODEL LAYER BOTTOM EL. = -0.180000     FOR LAYER  36

   MODEL LAYER BOTTOM EL. = -0.185000     FOR LAYER  37

   MODEL LAYER BOTTOM EL. = -0.190000     FOR LAYER  38

   MODEL LAYER BOTTOM EL. = -0.195000     FOR LAYER  39

   MODEL LAYER BOTTOM EL. = -0.200000     FOR LAYER  40

   MODEL LAYER BOTTOM EL. = -0.205000     FOR LAYER  41

   MODEL LAYER BOTTOM EL. = -0.210000     FOR LAYER  42

   MODEL LAYER BOTTOM EL. = -0.215000     FOR LAYER  43

   MODEL LAYER BOTTOM EL. = -0.220000     FOR LAYER  44

   MODEL LAYER BOTTOM EL. = -0.225000     FOR LAYER  45

   MODEL LAYER BOTTOM EL. = -0.230000     FOR LAYER  46

   MODEL LAYER BOTTOM EL. = -0.235000     FOR LAYER  47

   MODEL LAYER BOTTOM EL. = -0.240000     FOR LAYER  48

   MODEL LAYER BOTTOM EL. = -0.245000     FOR LAYER  49

   MODEL LAYER BOTTOM EL. = -0.250000     FOR LAYER  50

   MODEL LAYER BOTTOM EL. = -0.255000     FOR LAYER  51

   MODEL LAYER BOTTOM EL. = -0.260000     FOR LAYER  52

   MODEL LAYER BOTTOM EL. = -0.265000     FOR LAYER  53

   MODEL LAYER BOTTOM EL. = -0.270000     FOR LAYER  54

   MODEL LAYER BOTTOM EL. = -0.275000     FOR LAYER  55

   MODEL LAYER BOTTOM EL. = -0.280000     FOR LAYER  56

   MODEL LAYER BOTTOM EL. = -0.285000     FOR LAYER  57

   MODEL LAYER BOTTOM EL. = -0.290000     FOR LAYER  58

   MODEL LAYER BOTTOM EL. = -0.295000     FOR LAYER  59

   MODEL LAYER BOTTOM EL. = -0.300000     FOR LAYER  60

   MODEL LAYER BOTTOM EL. = -0.305000     FOR LAYER  61

   MODEL LAYER BOTTOM EL. = -0.310000     FOR LAYER  62

   MODEL LAYER BOTTOM EL. = -0.315000     FOR LAYER  63

   MODEL LAYER BOTTOM EL. = -0.320000     FOR LAYER  64

   MODEL LAYER BOTTOM EL. = -0.325000     FOR LAYER  65

   MODEL LAYER BOTTOM EL. = -0.330000     FOR LAYER  66

   MODEL LAYER BOTTOM EL. = -0.335000     FOR LAYER  67

   MODEL LAYER BOTTOM EL. = -0.340000     FOR LAYER  68

   MODEL LAYER BOTTOM EL. = -0.345000     FOR LAYER  69

   MODEL LAYER BOTTOM EL. = -0.350000     FOR LAYER  70

   MODEL LAYER BOTTOM EL. = -0.355000     FOR LAYER  71

   MODEL LAYER BOTTOM EL. = -0.360000     FOR LAYER  72

   MODEL LAYER BOTTOM EL. = -0.365000     FOR LAYER  73

   MODEL LAYER BOTTOM EL. = -0.370000     FOR LAYER  74

   MODEL LAYER BOTTOM EL. = -0.375000     FOR LAYER  75

   MODEL LAYER BOTTOM EL. = -0.380000     FOR LAYER  76

   MODEL LAYER BOTTOM EL. = -0.385000     FOR LAYER  77

   MODEL LAYER BOTTOM EL. = -0.390000     FOR LAYER  78

   MODEL LAYER BOTTOM EL. = -0.395000     FOR LAYER  79

   MODEL LAYER BOTTOM EL. = -0.400000     FOR LAYER  80

   MODEL LAYER BOTTOM EL. = -0.405000     FOR LAYER  81

   MODEL LAYER BOTTOM EL. = -0.410000     FOR LAYER  82

   MODEL LAYER BOTTOM EL. = -0.415000     FOR LAYER  83

   MODEL LAYER BOTTOM EL. = -0.420000     FOR LAYER  84

   MODEL LAYER BOTTOM EL. = -0.425000     FOR LAYER  85

   MODEL LAYER BOTTOM EL. = -0.430000     FOR LAYER  86

   MODEL LAYER BOTTOM EL. = -0.435000     FOR LAYER  87

   MODEL LAYER BOTTOM EL. = -0.440000     FOR LAYER  88

   MODEL LAYER BOTTOM EL. = -0.445000     FOR LAYER  89

   MODEL LAYER BOTTOM EL. = -0.450000     FOR LAYER  90

   MODEL LAYER BOTTOM EL. = -0.455000     FOR LAYER  91

   MODEL LAYER BOTTOM EL. = -0.460000     FOR LAYER  92

   MODEL LAYER BOTTOM EL. = -0.465000     FOR LAYER  93

   MODEL LAYER BOTTOM EL. = -0.470000     FOR LAYER  94

   MODEL LAYER BOTTOM EL. = -0.475000     FOR LAYER  95

   MODEL LAYER BOTTOM EL. = -0.480000     FOR LAYER  96

   MODEL LAYER BOTTOM EL. = -0.485000     FOR LAYER  97

   MODEL LAYER BOTTOM EL. = -0.490000     FOR LAYER  98

   MODEL LAYER BOTTOM EL. = -0.495000     FOR LAYER  99

   MODEL LAYER BOTTOM EL. = -0.500000     FOR LAYER 100

   MODEL LAYER BOTTOM EL. = -0.505000     FOR LAYER 101

   MODEL LAYER BOTTOM EL. = -0.510000     FOR LAYER 102

   MODEL LAYER BOTTOM EL. = -0.515000     FOR LAYER 103

   MODEL LAYER BOTTOM EL. = -0.520000     FOR LAYER 104

   MODEL LAYER BOTTOM EL. = -0.525000     FOR LAYER 105

   MODEL LAYER BOTTOM EL. = -0.530000     FOR LAYER 106

   MODEL LAYER BOTTOM EL. = -0.535000     FOR LAYER 107

   MODEL LAYER BOTTOM EL. = -0.540000     FOR LAYER 108

   MODEL LAYER BOTTOM EL. = -0.545000     FOR LAYER 109

   MODEL LAYER BOTTOM EL. = -0.550000     FOR LAYER 110

   MODEL LAYER BOTTOM EL. = -0.555000     FOR LAYER 111

   MODEL LAYER BOTTOM EL. = -0.560000     FOR LAYER 112

   MODEL LAYER BOTTOM EL. = -0.565000     FOR LAYER 113

   MODEL LAYER BOTTOM EL. = -0.570000     FOR LAYER 114

   MODEL LAYER BOTTOM EL. = -0.575000     FOR LAYER 115

   MODEL LAYER BOTTOM EL. = -0.580000     FOR LAYER 116

   MODEL LAYER BOTTOM EL. = -0.585000     FOR LAYER 117

   MODEL LAYER BOTTOM EL. = -0.590000     FOR LAYER 118

   MODEL LAYER BOTTOM EL. = -0.595000     FOR LAYER 119

   MODEL LAYER BOTTOM EL. = -0.600000     FOR LAYER 120

   MODEL LAYER BOTTOM EL. = -0.605000     FOR LAYER 121

   MODEL LAYER BOTTOM EL. = -0.610000     FOR LAYER 122

   MODEL LAYER BOTTOM EL. = -0.615000     FOR LAYER 123

   MODEL LAYER BOTTOM EL. = -0.620000     FOR LAYER 124

   MODEL LAYER BOTTOM EL. = -0.625000     FOR LAYER 125

   MODEL LAYER BOTTOM EL. = -0.630000     FOR LAYER 126

   MODEL LAYER BOTTOM EL. = -0.635000     FOR LAYER 127

   MODEL LAYER BOTTOM EL. = -0.640000     FOR LAYER 128

   MODEL LAYER BOTTOM EL. = -0.645000     FOR LAYER 129

   MODEL LAYER BOTTOM EL. = -0.650000     FOR LAYER 130

   MODEL LAYER BOTTOM EL. = -0.655000     FOR LAYER 131

   MODEL LAYER BOTTOM EL. = -0.660000     FOR LAYER 132

   MODEL LAYER BOTTOM EL. = -0.665000     FOR LAYER 133

   MODEL LAYER BOTTOM EL. = -0.670000     FOR LAYER 134

   MODEL LAYER BOTTOM EL. = -0.675000     FOR LAYER 135

   MODEL LAYER BOTTOM EL. = -0.680000     FOR LAYER 136

   MODEL LAYER BOTTOM EL. = -0.685000     FOR LAYER 137

   MODEL LAYER BOTTOM EL. = -0.690000     FOR LAYER 138

   MODEL LAYER BOTTOM EL. = -0.695000     FOR LAYER 139

   MODEL LAYER BOTTOM EL. = -0.700000     FOR LAYER 140

   MODEL LAYER BOTTOM EL. = -0.705000     FOR LAYER 141

   MODEL LAYER BOTTOM EL. = -0.710000     FOR LAYER 142

   MODEL LAYER BOTTOM EL. = -0.715000     FOR LAYER 143

   MODEL LAYER BOTTOM EL. = -0.720000     FOR LAYER 144

   MODEL LAYER BOTTOM EL. = -0.725000     FOR LAYER 145

   MODEL LAYER BOTTOM EL. = -0.730000     FOR LAYER 146

   MODEL LAYER BOTTOM EL. = -0.735000     FOR LAYER 147

   MODEL LAYER BOTTOM EL. = -0.740000     FOR LAYER 148

   MODEL LAYER BOTTOM EL. = -0.745000     FOR LAYER 149

   MODEL LAYER BOTTOM EL. = -0.750000     FOR LAYER 150

   MODEL LAYER BOTTOM EL. = -0.755000     FOR LAYER 151

   MODEL LAYER BOTTOM EL. = -0.760000     FOR LAYER 152

   MODEL LAYER BOTTOM EL. = -0.765000     FOR LAYER 153

   MODEL LAYER BOTTOM EL. = -0.770000     FOR LAYER 154

   MODEL LAYER BOTTOM EL. = -0.775000     FOR LAYER 155

   MODEL LAYER BOTTOM EL. = -0.780000     FOR LAYER 156

   MODEL LAYER BOTTOM EL. = -0.785000     FOR LAYER 157

   MODEL LAYER BOTTOM EL. = -0.790000     FOR LAYER 158

   MODEL LAYER BOTTOM EL. = -0.795000     FOR LAYER 159

   MODEL LAYER BOTTOM EL. = -0.800000     FOR LAYER 160

   MODEL LAYER BOTTOM EL. = -0.805000     FOR LAYER 161

   MODEL LAYER BOTTOM EL. = -0.810000     FOR LAYER 162

   MODEL LAYER BOTTOM EL. = -0.815000     FOR LAYER 163

   MODEL LAYER BOTTOM EL. = -0.820000     FOR LAYER 164

   MODEL LAYER BOTTOM EL. = -0.825000     FOR LAYER 165

   MODEL LAYER BOTTOM EL. = -0.830000     FOR LAYER 166

   MODEL LAYER BOTTOM EL. = -0.835000     FOR LAYER 167

   MODEL LAYER BOTTOM EL. = -0.840000     FOR LAYER 168

   MODEL LAYER BOTTOM EL. = -0.845000     FOR LAYER 169

   MODEL LAYER BOTTOM EL. = -0.850000     FOR LAYER 170

   MODEL LAYER BOTTOM EL. = -0.855000     FOR LAYER 171

   MODEL LAYER BOTTOM EL. = -0.860000     FOR LAYER 172

   MODEL LAYER BOTTOM EL. = -0.865000     FOR LAYER 173

   MODEL LAYER BOTTOM EL. = -0.870000     FOR LAYER 174

   MODEL LAYER BOTTOM EL. = -0.875000     FOR LAYER 175

   MODEL LAYER BOTTOM EL. = -0.880000     FOR LAYER 176

   MODEL LAYER BOTTOM EL. = -0.885000     FOR LAYER 177

   MODEL LAYER BOTTOM EL. = -0.890000     FOR LAYER 178

   MODEL LAYER BOTTOM EL. = -0.895000     FOR LAYER 179

   MODEL LAYER BOTTOM EL. = -0.900000     FOR LAYER 180

   MODEL LAYER BOTTOM EL. = -0.905000     FOR LAYER 181

   MODEL LAYER BOTTOM EL. = -0.910000     FOR LAYER 182

   MODEL LAYER BOTTOM EL. = -0.915000     FOR LAYER 183

   MODEL LAYER BOTTOM EL. = -0.920000     FOR LAYER 184

   MODEL LAYER BOTTOM EL. = -0.925000     FOR LAYER 185

   MODEL LAYER BOTTOM EL. = -0.930000     FOR LAYER 186

   MODEL LAYER BOTTOM EL. = -0.935000     FOR LAYER 187

   MODEL LAYER BOTTOM EL. = -0.940000     FOR LAYER 188

   MODEL LAYER BOTTOM EL. = -0.945000     FOR LAYER 189

   MODEL LAYER BOTTOM EL. = -0.950000     FOR LAYER 190

   MODEL LAYER BOTTOM EL. = -0.955000     FOR LAYER 191

   MODEL LAYER BOTTOM EL. = -0.960000     FOR LAYER 192

   MODEL LAYER BOTTOM EL. = -0.965000     FOR LAYER 193

   MODEL LAYER BOTTOM EL. = -0.970000     FOR LAYER 194

   MODEL LAYER BOTTOM EL. = -0.975000     FOR LAYER 195

   MODEL LAYER BOTTOM EL. = -0.980000     FOR LAYER 196

   MODEL LAYER BOTTOM EL. = -0.985000     FOR LAYER 197

   MODEL LAYER BOTTOM EL. = -0.990000     FOR LAYER 198

   MODEL LAYER BOTTOM EL. = -0.995000     FOR LAYER 199

   MODEL LAYER BOTTOM EL. =  -1.00000     FOR LAYER 200


 STRESS PERIOD     LENGTH       TIME STEPS     MULTIPLIER FOR DELT    SS FLAG
 ----------------------------------------------------------------------------
        1         1.000000          1                    1.000         SS

 STEADY-STATE SIMULATION



 
 # basic package file --- x-section 200 layers, 1 column                         
 CROSS SECTION OPTION IS SPECIFIED



                     BOUNDARY ARRAY FOR CROSS SECTION
 READING ON UNIT    8 WITH FORMAT: (FREE)              

        1
 ........
   1   -1
   2    1
   3    1
   4    1
   5    1
   6    1
   7    1
   8    1
   9    1
  10    1
  11    1
  12    1
  13    1
  14    1
  15    1
  16    1
  17    1
  18    1
  19    1
  20    1
  21    1
  22    1
  23    1
  24    1
  25    1
  26    1
  27    1
  28    1
  29    1
  30    1
  31    1
  32    1
  33    1
  34    1
  35    1
  36    1
  37    1
  38    1
  39    1
  40    1
  41    1
  42    1
  43    1
  44    1
  45    1
  46    1
  47    1
  48    1
  49    1
  50    1
  51    1
  52    1
  53    1
  54    1
  55    1
  56    1
  57    1
  58    1
  59    1
  60    1
  61    1
  62    1
  63    1
  64    1
  65    1
  66    1
  67    1
  68    1
  69    1
  70    1
  71    1
  72    1
  73    1
  74    1
  75    1
  76    1
  77    1
  78    1
  79    1
  80    1
  81    1
  82    1
  83    1
  84    1
  85    1
  86    1
  87    1
  88    1
  89    1
  90    1
  91    1
  92    1
  93    1
  94    1
  95    1
  96    1
  97    1
  98    1
  99    1
 100    1
 101    1
 102    1
 103    1
 104    1
 105    1
 106    1
 107    1
 108    1
 109    1
 110    1
 111    1
 112    1
 113    1
 114    1
 115    1
 116    1
 117    1
 118    1
 119    1
 120    1
 121    1
 122    1
 123    1
 124    1
 125    1
 126    1
 127    1
 128    1
 129    1
 130    1
 131    1
 132    1
 133    1
 134    1
 135    1
 136    1
 137    1
 138    1
 139    1
 140    1
 141    1
 142    1
 143    1
 144    1
 145    1
 146    1
 147    1
 148    1
 149    1
 150    1
 151    1
 152    1
 153    1
 154    1
 155    1
 156    1
 157    1
 158    1
 159    1
 160    1
 161    1
 162    1
 163    1
 164    1
 165    1
 166    1
 167    1
 168    1
 169    1
 170    1
 171    1
 172    1
 173    1
 174    1
 175    1
 176    1
 177    1
 178    1
 179    1
 180    1
 181    1
 182    1
 183    1
 184    1
 185    1
 186    1
 187    1
 188    1
 189    1
 190    1
 191    1
 192    1
 193    1
 194    1
 195    1
 196    1
 197    1
 198    1
 199    1
 200   -1

 AQUIFER HEAD WILL BE SET TO   999.99     AT ALL NO-FLOW NODES (IBOUND=0).



                       INITIAL HEAD FOR CROSS SECTION
 READING ON UNIT    8 WITH FORMAT: (FREE)              

           1
 ...........
   1      1.5
   2      1.5
   3      1.5
   4      1.5
   5      1.5
   6      1.5
   7      1.5
   8      1.5
   9      1.5
  10      1.5
  11      1.5
  12      1.5
  13      1.5
  14      1.5
  15      1.5
  16      1.5
  17      1.5
  18      1.5
  19      1.5
  20      1.5
  21      1.5
  22      1.5
  23      1.5
  24      1.5
  25      1.5
  26      1.5
  27      1.5
  28      1.5
  29      1.5
  30      1.5
  31      1.5
  32      1.5
  33      1.5
  34      1.5
  35      1.5
  36      1.5
  37      1.5
  38      1.5
  39      1.5
  40      1.5
  41      1.5
  42      1.5
  43      1.5
  44      1.5
  45      1.5
  46      1.5
  47      1.5
  48      1.5
  49      1.5
  50      1.5
  51      1.5
  52      1.5
  53      1.5
  54      1.5
  55      1.5
  56      1.5
  57      1.5
  58      1.5
  59      1.5
  60      1.5
  61      1.5
  62      1.5
  63      1.5
  64      1.5
  65      1.5
  66      1.5
  67      1.5
  68      1.5
  69      1.5
  70      1.5
  71      1.5
  72      1.5
  73      1.5
  74      1.5
  75      1.5
  76      1.5
  77      1.5
  78      1.5
  79      1.5
  80      1.5
  81      1.5
  82      1.5
  83      1.5
  84      1.5
  85      1.5
  86      1.5
  87      1.5
  88      1.5
  89      1.5
  90      1.5
  91      1.5
  92      1.5
  93      1.5
  94      1.5
  95      1.5
  96      1.5
  97      1.5
  98      1.5
  99      1.5
 100      1.5
 101      1.5
 102      1.5
 103      1.5
 104      1.5
 105      1.5
 106      1.5
 107      1.5
 108      1.5
 109      1.5
 110      1.5
 111      1.5
 112      1.5
 113      1.5
 114      1.5
 115      1.5
 116      1.5
 117      1.5
 118      1.5
 119      1.5
 120      1.5
 121      1.5
 122      1.5
 123      1.5
 124      1.5
 125      1.5
 126      1.5
 127      1.5
 128      1.5
 129      1.5
 130      1.5
 131      1.5
 132      1.5
 133      1.5
 134      1.5
 135      1.5
 136      1.5
 137      1.5
 138      1.5
 139      1.5
 140      1.5
 141      1.5
 142      1.5
 143      1.5
 144      1.5
 145      1.5
 146      1.5
 147      1.5
 148      1.5
 149      1.5
 150      1.5
 151      1.5
 152      1.5
 153      1.5
 154      1.5
 155      1.5
 156      1.5
 157      1.5
 158      1.5
 159      1.5
 160      1.5
 161      1.5
 162      1.5
 163      1.5
 164      1.5
 165      1.5
 166      1.5
 167      1.5
 168      1.5
 169      1.5
 170      1.5
 171      1.5
 172      1.5
 173      1.5
 174      1.5
 175      1.5
 176      1.5
 177      1.5
 178      1.5
 179      1.5
 180      1.5
 181      1.5
 182      1.5
 183      1.5
 184      1.5
 185      1.5
 186      1.5
 187      1.5
 188      1.5
 189      1.5
 190      1.5
 191      1.5
 192      1.5
 193      1.5
 194      1.5
 195      1.5
 196      1.5
 197      1.5
 198      1.5
 199      1.5
 200      1.5

 OUTPUT CONTROL IS SPECIFIED ONLY AT TIME STEPS FOR WHICH OUTPUT IS DESIRED
 COMPACT CELL-BY-CELL BUDGET FILES WILL BE WRITTEN
 AUXILIARY DATA WILL BE SAVED IN CELL-BY-CELL BUDGET FILES
 IBOUND WILL BE SAVED ON UNIT   52
 HEAD PRINT FORMAT CODE IS  20    DRAWDOWN PRINT FORMAT CODE IS   0
 HEADS WILL BE SAVED ON UNIT   51    DRAWDOWNS WILL BE SAVED ON UNIT    0

 LPF -- LAYER-PROPERTY FLOW PACKAGE, VERSION 7, 5/2/2005
         INPUT READ FROM UNIT   11
 # LPF package inputs
 CELL-BY-CELL FLOWS WILL BE SAVED ON UNIT   34
 HEAD AT CELLS THAT CONVERT TO DRY=  1.00000E+30
 No named parameters

   LAYER FLAGS:
 LAYER       LAYTYP        LAYAVG         CHANI        LAYVKA        LAYWET
 ---------------------------------------------------------------------------
    1             1             0     1.000E+00             0             0
    2             0             0     1.000E+00             0             0
    3             0             0     1.000E+00             0             0
    4             0             0     1.000E+00             0             0
    5             0             0     1.000E+00             0             0
    6             0             0     1.000E+00             0             0
    7             0             0     1.000E+00             0             0
    8             0             0     1.000E+00             0             0
    9             0             0     1.000E+00             0             0
   10             0             0     1.000E+00             0             0
   11             0             0     1.000E+00             0             0
   12             0             0     1.000E+00             0             0
   13             0             0     1.000E+00             0             0
   14             0             0     1.000E+00             0             0
   15             0             0     1.000E+00             0             0
   16             0             0     1.000E+00             0             0
   17             0             0     1.000E+00             0             0
   18             0             0     1.000E+00             0             0
   19             0             0     1.000E+00             0             0
   20             0             0     1.000E+00             0             0
   21             0             0     1.000E+00             0             0
   22             0             0     1.000E+00             0             0
   23             0             0     1.000E+00             0             0
   24             0             0     1.000E+00             0             0
   25             0             0     1.000E+00             0             0
   26             0             0     1.000E+00             0             0
   27             0             0     1.000E+00             0             0
   28             0             0     1.000E+00             0             0
   29             0             0     1.000E+00             0             0
   30             0             0     1.000E+00             0             0
   31             0             0     1.000E+00             0             0
   32             0             0     1.000E+00             0             0
   33             0             0     1.000E+00             0             0
   34             0             0     1.000E+00             0             0
   35             0             0     1.000E+00             0             0
   36             0             0     1.000E+00             0             0
   37             0             0     1.000E+00             0             0
   38             0             0     1.000E+00             0             0
   39             0             0     1.000E+00             0             0
   40             0             0     1.000E+00             0             0
   41             0             0     1.000E+00             0             0
   42             0             0     1.000E+00             0             0
   43             0             0     1.000E+00             0             0
   44             0             0     1.000E+00             0             0
   45             0             0     1.000E+00             0             0
   46             0             0     1.000E+00             0             0
   47             0             0     1.000E+00             0             0
   48             0             0     1.000E+00             0             0
   49             0             0     1.000E+00             0             0
   50             0             0     1.000E+00             0             0
   51             0             0     1.000E+00             0             0
   52             0             0     1.000E+00             0             0
   53             0             0     1.000E+00             0             0
   54             0             0     1.000E+00             0             0
   55             0             0     1.000E+00             0             0
   56             0             0     1.000E+00             0             0
   57             0             0     1.000E+00             0             0
   58             0             0     1.000E+00             0             0
   59             0             0     1.000E+00             0             0
   60             0             0     1.000E+00             0             0
   61             0             0     1.000E+00             0             0
   62             0             0     1.000E+00             0             0
   63             0             0     1.000E+00             0             0
   64             0             0     1.000E+00             0             0
   65             0             0     1.000E+00             0             0
   66             0             0     1.000E+00             0             0
   67             0             0     1.000E+00             0             0
   68             0             0     1.000E+00             0             0
   69             0             0     1.000E+00             0             0
   70             0             0     1.000E+00             0             0
   71             0             0     1.000E+00             0             0
   72             0             0     1.000E+00             0             0
   73             0             0     1.000E+00             0             0
   74             0             0     1.000E+00             0             0
   75             0             0     1.000E+00             0             0
   76             0             0     1.000E+00             0             0
   77             0             0     1.000E+00             0             0
   78             0             0     1.000E+00             0             0
   79             0             0     1.000E+00             0             0
   80             0             0     1.000E+00             0             0
   81             0             0     1.000E+00             0             0
   82             0             0     1.000E+00             0             0
   83             0             0     1.000E+00             0             0
   84             0             0     1.000E+00             0             0
   85             0             0     1.000E+00             0             0
   86             0             0     1.000E+00             0             0
   87             0             0     1.000E+00             0             0
   88             0             0     1.000E+00             0             0
   89             0             0     1.000E+00             0             0
   90             0             0     1.000E+00             0             0
   91             0             0     1.000E+00             0             0
   92             0             0     1.000E+00             0             0
   93             0             0     1.000E+00             0             0
   94             0             0     1.000E+00             0             0
   95             0             0     1.000E+00             0             0
   96             0             0     1.000E+00             0             0
   97             0             0     1.000E+00             0             0
   98             0             0     1.000E+00             0             0
   99             0             0     1.000E+00             0             0
  100             0             0     1.000E+00             0             0
  101             0             0     1.000E+00             0             0
  102             0             0     1.000E+00             0             0
  103             0             0     1.000E+00             0             0
  104             0             0     1.000E+00             0             0
  105             0             0     1.000E+00             0             0
  106             0             0     1.000E+00             0             0
  107             0             0     1.000E+00             0             0
  108             0             0     1.000E+00             0             0
  109             0             0     1.000E+00             0             0
  110             0             0     1.000E+00             0             0
  111             0             0     1.000E+00             0             0
  112             0             0     1.000E+00             0             0
  113             0             0     1.000E+00             0             0
  114             0             0     1.000E+00             0             0
  115             0             0     1.000E+00             0             0
  116             0             0     1.000E+00             0             0
  117             0             0     1.000E+00             0             0
  118             0             0     1.000E+00             0             0
  119             0             0     1.000E+00             0             0
  120             0             0     1.000E+00             0             0
  121             0             0     1.000E+00             0             0
  122             0             0     1.000E+00             0             0
  123             0             0     1.000E+00             0             0
  124             0             0     1.000E+00             0             0
  125             0             0     1.000E+00             0             0
  126             0             0     1.000E+00             0             0
  127             0             0     1.000E+00             0             0
  128             0             0     1.000E+00             0             0
  129             0             0     1.000E+00             0             0
  130             0             0     1.000E+00             0             0
  131             0             0     1.000E+00             0             0
  132             0             0     1.000E+00             0             0
  133             0             0     1.000E+00             0             0
  134             0             0     1.000E+00             0             0
  135             0             0     1.000E+00             0             0
  136             0             0     1.000E+00             0             0
  137             0             0     1.000E+00             0             0
  138             0             0     1.000E+00             0             0
  139             0             0     1.000E+00             0             0
  140             0             0     1.000E+00             0             0
  141             0             0     1.000E+00             0             0
  142             0             0     1.000E+00             0             0
  143             0             0     1.000E+00             0             0
  144             0             0     1.000E+00             0             0
  145             0             0     1.000E+00             0             0
  146             0             0     1.000E+00             0             0
  147             0             0     1.000E+00             0             0
  148             0             0     1.000E+00             0             0
  149             0             0     1.000E+00             0             0
  150             0             0     1.000E+00             0             0
  151             0             0     1.000E+00             0             0
  152             0             0     1.000E+00             0             0
  153             0             0     1.000E+00             0             0
  154             0             0     1.000E+00             0             0
  155             0             0     1.000E+00             0             0
  156             0             0     1.000E+00             0             0
  157             0             0     1.000E+00             0             0
  158             0             0     1.000E+00             0             0
  159             0             0     1.000E+00             0             0
  160             0             0     1.000E+00             0             0
  161             0             0     1.000E+00             0             0
  162             0             0     1.000E+00             0             0
  163             0             0     1.000E+00             0             0
  164             0             0     1.000E+00             0             0
  165             0             0     1.000E+00             0             0
  166             0             0     1.000E+00             0             0
  167             0             0     1.000E+00             0             0
  168             0             0     1.000E+00             0             0
  169             0             0     1.000E+00             0             0
  170             0             0     1.000E+00             0             0
  171             0             0     1.000E+00             0             0
  172             0             0     1.000E+00             0             0
  173             0             0     1.000E+00             0             0
  174             0             0     1.000E+00             0             0
  175             0             0     1.000E+00             0             0
  176             0             0     1.000E+00             0             0
  177             0             0     1.000E+00             0             0
  178             0             0     1.000E+00             0             0
  179             0             0     1.000E+00             0             0
  180             0             0     1.000E+00             0             0
  181             0             0     1.000E+00             0             0
  182             0             0     1.000E+00             0             0
  183             0             0     1.000E+00             0             0
  184             0             0     1.000E+00             0             0
  185             0             0     1.000E+00             0             0
  186             0             0     1.000E+00             0             0
  187             0             0     1.000E+00             0             0
  188             0             0     1.000E+00             0             0
  189             0             0     1.000E+00             0             0
  190             0             0     1.000E+00             0             0
  191             0             0     1.000E+00             0             0
  192             0             0     1.000E+00             0             0
  193             0             0     1.000E+00             0             0
  194             0             0     1.000E+00             0             0
  195             0             0     1.000E+00             0             0
  196             0             0     1.000E+00             0             0
  197             0             0     1.000E+00             0             0
  198             0             0     1.000E+00             0             0
  199             0             0     1.000E+00             0             0
  200             0             0     1.000E+00             0             0

   INTERPRETATION OF LAYER FLAGS:
                        INTERBLOCK     HORIZONTAL    DATA IN
         LAYER TYPE   TRANSMISSIVITY   ANISOTROPY   ARRAY VKA   WETTABILITY
 LAYER      (LAYTYP)      (LAYAVG)       (CHANI)      (LAYVKA)      (LAYWET)
 ---------------------------------------------------------------------------
    1   CONVERTIBLE      HARMONIC     1.000E+00    VERTICAL K  NON-WETTABLE
    2      CONFINED      HARMONIC     1.000E+00    VERTICAL K  NON-WETTABLE
    3      CONFINED      HARMONIC     1.000E+00    VERTICAL K  NON-WETTABLE
    4      CONFINED      HARMONIC     1.000E+00    VERTICAL K  NON-WETTABLE
    5      CONFINED      HARMONIC     1.000E+00    VERTICAL K  NON-WETTABLE
    6      CONFINED      HARMONIC     1.000E+00    VERTICAL K  NON-WETTABLE
    7      CONFINED      HARMONIC     1.000E+00    VERTICAL K  NON-WETTABLE
    8      CONFINED      HARMONIC     1.000E+00    VERTICAL K  NON-WETTABLE
    9      CONFINED      HARMONIC     1.000E+00    VERTICAL K  NON-WETTABLE
   10      CONFINED      HARMONIC     1.000E+00    VERTICAL K  NON-WETTABLE
   11      CONFINED      HARMONIC     1.000E+00    VERTICAL K  NON-WETTABLE
   12      CONFINED      HARMONIC     1.000E+00    VERTICAL K  NON-WETTABLE
   13      CONFINED      HARMONIC     1.000E+00    VERTICAL K  NON-WETTABLE
   14      CONFINED      HARMONIC     1.000E+00    VERTICAL K  NON-WETTABLE
   15      CONFINED      HARMONIC     1.000E+00    VERTICAL K  NON-WETTABLE
   16      CONFINED      HARMONIC     1.000E+00    VERTICAL K  NON-WETTABLE
   17      CONFINED      HARMONIC     1.000E+00    VERTICAL K  NON-WETTABLE
   18      CONFINED      HARMONIC     1.000E+00    VERTICAL K  NON-WETTABLE
   19      CONFINED      HARMONIC     1.000E+00    VERTICAL K  NON-WETTABLE
   20      CONFINED      HARMONIC     1.000E+00    VERTICAL K  NON-WETTABLE
   21      CONFINED      HARMONIC     1.000E+00    VERTICAL K  NON-WETTABLE
   22      CONFINED      HARMONIC     1.000E+00    VERTICAL K  NON-WETTABLE
   23      CONFINED      HARMONIC     1.000E+00    VERTICAL K  NON-WETTABLE
   24      CONFINED      HARMONIC     1.000E+00    VERTICAL K  NON-WETTABLE
   25      CONFINED      HARMONIC     1.000E+00    VERTICAL K  NON-WETTABLE
   26      CONFINED      HARMONIC     1.000E+00    VERTICAL K  NON-WETTABLE
   27      CONFINED      HARMONIC     1.000E+00    VERTICAL K  NON-WETTABLE
   28      CONFINED      HARMONIC     1.000E+00    VERTICAL K  NON-WETTABLE
   29      CONFINED      HARMONIC     1.000E+00    VERTICAL K  NON-WETTABLE
   30      CONFINED      HARMONIC     1.000E+00    VERTICAL K  NON-WETTABLE
   31      CONFINED      HARMONIC     1.000E+00    VERTICAL K  NON-WETTABLE
   32      CONFINED      HARMONIC     1.000E+00    VERTICAL K  NON-WETTABLE
   33      CONFINED      HARMONIC     1.000E+00    VERTICAL K  NON-WETTABLE
   34      CONFINED      HARMONIC     1.000E+00    VERTICAL K  NON-WETTABLE
   35      CONFINED      HARMONIC     1.000E+00    VERTICAL K  NON-WETTABLE
   36      CONFINED      HARMONIC     1.000E+00    VERTICAL K  NON-WETTABLE
   37      CONFINED      HARMONIC     1.000E+00    VERTICAL K  NON-WETTABLE
   38      CONFINED      HARMONIC     1.000E+00    VERTICAL K  NON-WETTABLE
   39      CONFINED      HARMONIC     1.000E+00    VERTICAL K  NON-WETTABLE
   40      CONFINED      HARMONIC     1.000E+00    VERTICAL K  NON-WETTABLE
   41      CONFINED      HARMONIC     1.000E+00    VERTICAL K  NON-WETTABLE
   42      CONFINED      HARMONIC     1.000E+00    VERTICAL K  NON-WETTABLE
   43      CONFINED      HARMONIC     1.000E+00    VERTICAL K  NON-WETTABLE
   44      CONFINED      HARMONIC     1.000E+00    VERTICAL K  NON-WETTABLE
   45      CONFINED      HARMONIC     1.000E+00    VERTICAL K  NON-WETTABLE
   46      CONFINED      HARMONIC     1.000E+00    VERTICAL K  NON-WETTABLE
   47      CONFINED      HARMONIC     1.000E+00    VERTICAL K  NON-WETTABLE
   48      CONFINED      HARMONIC     1.000E+00    VERTICAL K  NON-WETTABLE
   49      CONFINED      HARMONIC     1.000E+00    VERTICAL K  NON-WETTABLE
   50      CONFINED      HARMONIC     1.000E+00    VERTICAL K  NON-WETTABLE
   51      CONFINED      HARMONIC     1.000E+00    VERTICAL K  NON-WETTABLE
   52      CONFINED      HARMONIC     1.000E+00    VERTICAL K  NON-WETTABLE
   53      CONFINED      HARMONIC     1.000E+00    VERTICAL K  NON-WETTABLE
   54      CONFINED      HARMONIC     1.000E+00    VERTICAL K  NON-WETTABLE
   55      CONFINED      HARMONIC     1.000E+00    VERTICAL K  NON-WETTABLE
   56      CONFINED      HARMONIC     1.000E+00    VERTICAL K  NON-WETTABLE
   57      CONFINED      HARMONIC     1.000E+00    VERTICAL K  NON-WETTABLE
   58      CONFINED      HARMONIC     1.000E+00    VERTICAL K  NON-WETTABLE
   59      CONFINED      HARMONIC     1.000E+00    VERTICAL K  NON-WETTABLE
   60      CONFINED      HARMONIC     1.000E+00    VERTICAL K  NON-WETTABLE
   61      CONFINED      HARMONIC     1.000E+00    VERTICAL K  NON-WETTABLE
   62      CONFINED      HARMONIC     1.000E+00    VERTICAL K  NON-WETTABLE
   63      CONFINED      HARMONIC     1.000E+00    VERTICAL K  NON-WETTABLE
   64      CONFINED      HARMONIC     1.000E+00    VERTICAL K  NON-WETTABLE
   65      CONFINED      HARMONIC     1.000E+00    VERTICAL K  NON-WETTABLE
   66      CONFINED      HARMONIC     1.000E+00    VERTICAL K  NON-WETTABLE
   67      CONFINED      HARMONIC     1.000E+00    VERTICAL K  NON-WETTABLE
   68      CONFINED      HARMONIC     1.000E+00    VERTICAL K  NON-WETTABLE
   69      CONFINED      HARMONIC     1.000E+00    VERTICAL K  NON-WETTABLE
   70      CONFINED      HARMONIC     1.000E+00    VERTICAL K  NON-WETTABLE
   71      CONFINED      HARMONIC     1.000E+00    VERTICAL K  NON-WETTABLE
   72      CONFINED      HARMONIC     1.000E+00    VERTICAL K  NON-WETTABLE
   73      CONFINED      HARMONIC     1.000E+00    VERTICAL K  NON-WETTABLE
   74      CONFINED      HARMONIC     1.000E+00    VERTICAL K  NON-WETTABLE
   75      CONFINED      HARMONIC     1.000E+00    VERTICAL K  NON-WETTABLE
   76      CONFINED      HARMONIC     1.000E+00    VERTICAL K  NON-WETTABLE
   77      CONFINED      HARMONIC     1.000E+00    VERTICAL K  NON-WETTABLE
   78      CONFINED      HARMONIC     1.000E+00    VERTICAL K  NON-WETTABLE
   79      CONFINED      HARMONIC     1.000E+00    VERTICAL K  NON-WETTABLE
   80      CONFINED      HARMONIC     1.000E+00    VERTICAL K  NON-WETTABLE
   81      CONFINED      HARMONIC     1.000E+00    VERTICAL K  NON-WETTABLE
   82      CONFINED      HARMONIC     1.000E+00    VERTICAL K  NON-WETTABLE
   83      CONFINED      HARMONIC     1.000E+00    VERTICAL K  NON-WETTABLE
   84      CONFINED      HARMONIC     1.000E+00    VERTICAL K  NON-WETTABLE
   85      CONFINED      HARMONIC     1.000E+00    VERTICAL K  NON-WETTABLE
   86      CONFINED      HARMONIC     1.000E+00    VERTICAL K  NON-WETTABLE
   87      CONFINED      HARMONIC     1.000E+00    VERTICAL K  NON-WETTABLE
   88      CONFINED      HARMONIC     1.000E+00    VERTICAL K  NON-WETTABLE
   89      CONFINED      HARMONIC     1.000E+00    VERTICAL K  NON-WETTABLE
   90      CONFINED      HARMONIC     1.000E+00    VERTICAL K  NON-WETTABLE
   91      CONFINED      HARMONIC     1.000E+00    VERTICAL K  NON-WETTABLE
   92      CONFINED      HARMONIC     1.000E+00    VERTICAL K  NON-WETTABLE
   93      CONFINED      HARMONIC     1.000E+00    VERTICAL K  NON-WETTABLE
   94      CONFINED      HARMONIC     1.000E+00    VERTICAL K  NON-WETTABLE
   95      CONFINED      HARMONIC     1.000E+00    VERTICAL K  NON-WETTABLE
   96      CONFINED      HARMONIC     1.000E+00    VERTICAL K  NON-WETTABLE
   97      CONFINED      HARMONIC     1.000E+00    VERTICAL K  NON-WETTABLE
   98      CONFINED      HARMONIC     1.000E+00    VERTICAL K  NON-WETTABLE
   99      CONFINED      HARMONIC     1.000E+00    VERTICAL K  NON-WETTABLE
  100      CONFINED      HARMONIC     1.000E+00    VERTICAL K  NON-WETTABLE
  101      CONFINED      HARMONIC     1.000E+00    VERTICAL K  NON-WETTABLE
  102      CONFINED      HARMONIC     1.000E+00    VERTICAL K  NON-WETTABLE
  103      CONFINED      HARMONIC     1.000E+00    VERTICAL K  NON-WETTABLE
  104      CONFINED      HARMONIC     1.000E+00    VERTICAL K  NON-WETTABLE
  105      CONFINED      HARMONIC     1.000E+00    VERTICAL K  NON-WETTABLE
  106      CONFINED      HARMONIC     1.000E+00    VERTICAL K  NON-WETTABLE
  107      CONFINED      HARMONIC     1.000E+00    VERTICAL K  NON-WETTABLE
  108      CONFINED      HARMONIC     1.000E+00    VERTICAL K  NON-WETTABLE
  109      CONFINED      HARMONIC     1.000E+00    VERTICAL K  NON-WETTABLE
  110      CONFINED      HARMONIC     1.000E+00    VERTICAL K  NON-WETTABLE
  111      CONFINED      HARMONIC     1.000E+00    VERTICAL K  NON-WETTABLE
  112      CONFINED      HARMONIC     1.000E+00    VERTICAL K  NON-WETTABLE
  113      CONFINED      HARMONIC     1.000E+00    VERTICAL K  NON-WETTABLE
  114      CONFINED      HARMONIC     1.000E+00    VERTICAL K  NON-WETTABLE
  115      CONFINED      HARMONIC     1.000E+00    VERTICAL K  NON-WETTABLE
  116      CONFINED      HARMONIC     1.000E+00    VERTICAL K  NON-WETTABLE
  117      CONFINED      HARMONIC     1.000E+00    VERTICAL K  NON-WETTABLE
  118      CONFINED      HARMONIC     1.000E+00    VERTICAL K  NON-WETTABLE
  119      CONFINED      HARMONIC     1.000E+00    VERTICAL K  NON-WETTABLE
  120      CONFINED      HARMONIC     1.000E+00    VERTICAL K  NON-WETTABLE
  121      CONFINED      HARMONIC     1.000E+00    VERTICAL K  NON-WETTABLE
  122      CONFINED      HARMONIC     1.000E+00    VERTICAL K  NON-WETTABLE
  123      CONFINED      HARMONIC     1.000E+00    VERTICAL K  NON-WETTABLE
  124      CONFINED      HARMONIC     1.000E+00    VERTICAL K  NON-WETTABLE
  125      CONFINED      HARMONIC     1.000E+00    VERTICAL K  NON-WETTABLE
  126      CONFINED      HARMONIC     1.000E+00    VERTICAL K  NON-WETTABLE
  127      CONFINED      HARMONIC     1.000E+00    VERTICAL K  NON-WETTABLE
  128      CONFINED      HARMONIC     1.000E+00    VERTICAL K  NON-WETTABLE
  129      CONFINED      HARMONIC     1.000E+00    VERTICAL K  NON-WETTABLE
  130      CONFINED      HARMONIC     1.000E+00    VERTICAL K  NON-WETTABLE
  131      CONFINED      HARMONIC     1.000E+00    VERTICAL K  NON-WETTABLE
  132      CONFINED      HARMONIC     1.000E+00    VERTICAL K  NON-WETTABLE
  133      CONFINED      HARMONIC     1.000E+00    VERTICAL K  NON-WETTABLE
  134      CONFINED      HARMONIC     1.000E+00    VERTICAL K  NON-WETTABLE
  135      CONFINED      HARMONIC     1.000E+00    VERTICAL K  NON-WETTABLE
  136      CONFINED      HARMONIC     1.000E+00    VERTICAL K  NON-WETTABLE
  137      CONFINED      HARMONIC     1.000E+00    VERTICAL K  NON-WETTABLE
  138      CONFINED      HARMONIC     1.000E+00    VERTICAL K  NON-WETTABLE
  139      CONFINED      HARMONIC     1.000E+00    VERTICAL K  NON-WETTABLE
  140      CONFINED      HARMONIC     1.000E+00    VERTICAL K  NON-WETTABLE
  141      CONFINED      HARMONIC     1.000E+00    VERTICAL K  NON-WETTABLE
  142      CONFINED      HARMONIC     1.000E+00    VERTICAL K  NON-WETTABLE
  143      CONFINED      HARMONIC     1.000E+00    VERTICAL K  NON-WETTABLE
  144      CONFINED      HARMONIC     1.000E+00    VERTICAL K  NON-WETTABLE
  145      CONFINED      HARMONIC     1.000E+00    VERTICAL K  NON-WETTABLE
  146      CONFINED      HARMONIC     1.000E+00    VERTICAL K  NON-WETTABLE
  147      CONFINED      HARMONIC     1.000E+00    VERTICAL K  NON-WETTABLE
  148      CONFINED      HARMONIC     1.000E+00    VERTICAL K  NON-WETTABLE
  149      CONFINED      HARMONIC     1.000E+00    VERTICAL K  NON-WETTABLE
  150      CONFINED      HARMONIC     1.000E+00    VERTICAL K  NON-WETTABLE
  151      CONFINED      HARMONIC     1.000E+00    VERTICAL K  NON-WETTABLE
  152      CONFINED      HARMONIC     1.000E+00    VERTICAL K  NON-WETTABLE
  153      CONFINED      HARMONIC     1.000E+00    VERTICAL K  NON-WETTABLE
  154      CONFINED      HARMONIC     1.000E+00    VERTICAL K  NON-WETTABLE
  155      CONFINED      HARMONIC     1.000E+00    VERTICAL K  NON-WETTABLE
  156      CONFINED      HARMONIC     1.000E+00    VERTICAL K  NON-WETTABLE
  157      CONFINED      HARMONIC     1.000E+00    VERTICAL K  NON-WETTABLE
  158      CONFINED      HARMONIC     1.000E+00    VERTICAL K  NON-WETTABLE
  159      CONFINED      HARMONIC     1.000E+00    VERTICAL K  NON-WETTABLE
  160      CONFINED      HARMONIC     1.000E+00    VERTICAL K  NON-WETTABLE
  161      CONFINED      HARMONIC     1.000E+00    VERTICAL K  NON-WETTABLE
  162      CONFINED      HARMONIC     1.000E+00    VERTICAL K  NON-WETTABLE
  163      CONFINED      HARMONIC     1.000E+00    VERTICAL K  NON-WETTABLE
  164      CONFINED      HARMONIC     1.000E+00    VERTICAL K  NON-WETTABLE
  165      CONFINED      HARMONIC     1.000E+00    VERTICAL K  NON-WETTABLE
  166      CONFINED      HARMONIC     1.000E+00    VERTICAL K  NON-WETTABLE
  167      CONFINED      HARMONIC     1.000E+00    VERTICAL K  NON-WETTABLE
  168      CONFINED      HARMONIC     1.000E+00    VERTICAL K  NON-WETTABLE
  169      CONFINED      HARMONIC     1.000E+00    VERTICAL K  NON-WETTABLE
  170      CONFINED      HARMONIC     1.000E+00    VERTICAL K  NON-WETTABLE
  171      CONFINED      HARMONIC     1.000E+00    VERTICAL K  NON-WETTABLE
  172      CONFINED      HARMONIC     1.000E+00    VERTICAL K  NON-WETTABLE
  173      CONFINED      HARMONIC     1.000E+00    VERTICAL K  NON-WETTABLE
  174      CONFINED      HARMONIC     1.000E+00    VERTICAL K  NON-WETTABLE
  175      CONFINED      HARMONIC     1.000E+00    VERTICAL K  NON-WETTABLE
  176      CONFINED      HARMONIC     1.000E+00    VERTICAL K  NON-WETTABLE
  177      CONFINED      HARMONIC     1.000E+00    VERTICAL K  NON-WETTABLE
  178      CONFINED      HARMONIC     1.000E+00    VERTICAL K  NON-WETTABLE
  179      CONFINED      HARMONIC     1.000E+00    VERTICAL K  NON-WETTABLE
  180      CONFINED      HARMONIC     1.000E+00    VERTICAL K  NON-WETTABLE
  181      CONFINED      HARMONIC     1.000E+00    VERTICAL K  NON-WETTABLE
  182      CONFINED      HARMONIC     1.000E+00    VERTICAL K  NON-WETTABLE
  183      CONFINED      HARMONIC     1.000E+00    VERTICAL K  NON-WETTABLE
  184      CONFINED      HARMONIC     1.000E+00    VERTICAL K  NON-WETTABLE
  185      CONFINED      HARMONIC     1.000E+00    VERTICAL K  NON-WETTABLE
  186      CONFINED      HARMONIC     1.000E+00    VERTICAL K  NON-WETTABLE
  187      CONFINED      HARMONIC     1.000E+00    VERTICAL K  NON-WETTABLE
  188      CONFINED      HARMONIC     1.000E+00    VERTICAL K  NON-WETTABLE
  189      CONFINED      HARMONIC     1.000E+00    VERTICAL K  NON-WETTABLE
  190      CONFINED      HARMONIC     1.000E+00    VERTICAL K  NON-WETTABLE
  191      CONFINED      HARMONIC     1.000E+00    VERTICAL K  NON-WETTABLE
  192      CONFINED      HARMONIC     1.000E+00    VERTICAL K  NON-WETTABLE
  193      CONFINED      HARMONIC     1.000E+00    VERTICAL K  NON-WETTABLE
  194      CONFINED      HARMONIC     1.000E+00    VERTICAL K  NON-WETTABLE
  195      CONFINED      HARMONIC     1.000E+00    VERTICAL K  NON-WETTABLE
  196      CONFINED      HARMONIC     1.000E+00    VERTICAL K  NON-WETTABLE
  197      CONFINED      HARMONIC     1.000E+00    VERTICAL K  NON-WETTABLE
  198      CONFINED      HARMONIC     1.000E+00    VERTICAL K  NON-WETTABLE
  199      CONFINED      HARMONIC     1.000E+00    VERTICAL K  NON-WETTABLE
  200      CONFINED      HARMONIC     1.000E+00    VERTICAL K  NON-WETTABLE

 WETTING CAPABILITY IS NOT ACTIVE IN ANY LAYER



              HYD. COND. ALONG ROWS FOR LAYER   1
 READING ON UNIT   11 WITH FORMAT: (FREE)              

            1
 ............
   1    6.000    



                VERTICAL HYD. COND. FOR LAYER   1
 READING ON UNIT   11 WITH FORMAT: (FREE)              

            1
 ............
   1    6.000    



              HYD. COND. ALONG ROWS FOR LAYER   2
 READING ON UNIT   11 WITH FORMAT: (FREE)              

            1
 ............
   1    6.000    



                VERTICAL HYD. COND. FOR LAYER   2
 READING ON UNIT   11 WITH FORMAT: (FREE)              

            1
 ............
   1    6.000    



              HYD. COND. ALONG ROWS FOR LAYER   3
 READING ON UNIT   11 WITH FORMAT: (FREE)              

            1
 ............
   1    6.000    



                VERTICAL HYD. COND. FOR LAYER   3
 READING ON UNIT   11 WITH FORMAT: (FREE)              

            1
 ............
   1    6.000    



              HYD. COND. ALONG ROWS FOR LAYER   4
 READING ON UNIT   11 WITH FORMAT: (FREE)              

            1
 ............
   1    6.000    



                VERTICAL HYD. COND. FOR LAYER   4
 READING ON UNIT   11 WITH FORMAT: (FREE)              

            1
 ............
   1    6.000    



              HYD. COND. ALONG ROWS FOR LAYER   5
 READING ON UNIT   11 WITH FORMAT: (FREE)              

            1
 ............
   1    6.000    



                VERTICAL HYD. COND. FOR LAYER   5
 READING ON UNIT   11 WITH FORMAT: (FREE)              

            1
 ............
   1    6.000    



              HYD. COND. ALONG ROWS FOR LAYER   6
 READING ON UNIT   11 WITH FORMAT: (FREE)              

            1
 ............
   1    6.000    



                VERTICAL HYD. COND. FOR LAYER   6
 READING ON UNIT   11 WITH FORMAT: (FREE)              

            1
 ............
   1    6.000    



              HYD. COND. ALONG ROWS FOR LAYER   7
 READING ON UNIT   11 WITH FORMAT: (FREE)              

            1
 ............
   1    6.000    



                VERTICAL HYD. COND. FOR LAYER   7
 READING ON UNIT   11 WITH FORMAT: (FREE)              

            1
 ............
   1    6.000    



              HYD. COND. ALONG ROWS FOR LAYER   8
 READING ON UNIT   11 WITH FORMAT: (FREE)              

            1
 ............
   1    6.000    



                VERTICAL HYD. COND. FOR LAYER   8
 READING ON UNIT   11 WITH FORMAT: (FREE)              

            1
 ............
   1    6.000    



              HYD. COND. ALONG ROWS FOR LAYER   9
 READING ON UNIT   11 WITH FORMAT: (FREE)              

            1
 ............
   1    6.000    



                VERTICAL HYD. COND. FOR LAYER   9
 READING ON UNIT   11 WITH FORMAT: (FREE)              

            1
 ............
   1    6.000    



              HYD. COND. ALONG ROWS FOR LAYER  10
 READING ON UNIT   11 WITH FORMAT: (FREE)              

            1
 ............
   1    6.000    



                VERTICAL HYD. COND. FOR LAYER  10
 READING ON UNIT   11 WITH FORMAT: (FREE)              

            1
 ............
   1    6.000    



              HYD. COND. ALONG ROWS FOR LAYER  11
 READING ON UNIT   11 WITH FORMAT: (FREE)              

            1
 ............
   1    6.000    



                VERTICAL HYD. COND. FOR LAYER  11
 READING ON UNIT   11 WITH FORMAT: (FREE)              

            1
 ............
   1    6.000    



              HYD. COND. ALONG ROWS FOR LAYER  12
 READING ON UNIT   11 WITH FORMAT: (FREE)              

            1
 ............
   1    6.000    



                VERTICAL HYD. COND. FOR LAYER  12
 READING ON UNIT   11 WITH FORMAT: (FREE)              

            1
 ............
   1    6.000    



              HYD. COND. ALONG ROWS FOR LAYER  13
 READING ON UNIT   11 WITH FORMAT: (FREE)              

            1
 ............
   1    6.000    



                VERTICAL HYD. COND. FOR LAYER  13
 READING ON UNIT   11 WITH FORMAT: (FREE)              

            1
 ............
   1    6.000    



              HYD. COND. ALONG ROWS FOR LAYER  14
 READING ON UNIT   11 WITH FORMAT: (FREE)              

            1
 ............
   1    6.000    



                VERTICAL HYD. COND. FOR LAYER  14
 READING ON UNIT   11 WITH FORMAT: (FREE)              

            1
 ............
   1    6.000    



              HYD. COND. ALONG ROWS FOR LAYER  15
 READING ON UNIT   11 WITH FORMAT: (FREE)              

            1
 ............
   1    6.000    



                VERTICAL HYD. COND. FOR LAYER  15
 READING ON UNIT   11 WITH FORMAT: (FREE)              

            1
 ............
   1    6.000    



              HYD. COND. ALONG ROWS FOR LAYER  16
 READING ON UNIT   11 WITH FORMAT: (FREE)              

            1
 ............
   1    6.000    



                VERTICAL HYD. COND. FOR LAYER  16
 READING ON UNIT   11 WITH FORMAT: (FREE)              

            1
 ............
   1    6.000    



              HYD. COND. ALONG ROWS FOR LAYER  17
 READING ON UNIT   11 WITH FORMAT: (FREE)              

            1
 ............
   1    6.000    



                VERTICAL HYD. COND. FOR LAYER  17
 READING ON UNIT   11 WITH FORMAT: (FREE)              

            1
 ............
   1    6.000    



              HYD. COND. ALONG ROWS FOR LAYER  18
 READING ON UNIT   11 WITH FORMAT: (FREE)              

            1
 ............
   1    6.000    



                VERTICAL HYD. COND. FOR LAYER  18
 READING ON UNIT   11 WITH FORMAT: (FREE)              

            1
 ............
   1    6.000    



              HYD. COND. ALONG ROWS FOR LAYER  19
 READING ON UNIT   11 WITH FORMAT: (FREE)              

            1
 ............
   1    6.000    



                VERTICAL HYD. COND. FOR LAYER  19
 READING ON UNIT   11 WITH FORMAT: (FREE)              

            1
 ............
   1    6.000    



              HYD. COND. ALONG ROWS FOR LAYER  20
 READING ON UNIT   11 WITH FORMAT: (FREE)              

            1
 ............
   1    6.000    



                VERTICAL HYD. COND. FOR LAYER  20
 READING ON UNIT   11 WITH FORMAT: (FREE)              

            1
 ............
   1    6.000    



              HYD. COND. ALONG ROWS FOR LAYER  21
 READING ON UNIT   11 WITH FORMAT: (FREE)              

            1
 ............
   1    6.000    



                VERTICAL HYD. COND. FOR LAYER  21
 READING ON UNIT   11 WITH FORMAT: (FREE)              

            1
 ............
   1    6.000    



              HYD. COND. ALONG ROWS FOR LAYER  22
 READING ON UNIT   11 WITH FORMAT: (FREE)              

            1
 ............
   1    6.000    



                VERTICAL HYD. COND. FOR LAYER  22
 READING ON UNIT   11 WITH FORMAT: (FREE)              

            1
 ............
   1    6.000    



              HYD. COND. ALONG ROWS FOR LAYER  23
 READING ON UNIT   11 WITH FORMAT: (FREE)              

            1
 ............
   1    6.000    



                VERTICAL HYD. COND. FOR LAYER  23
 READING ON UNIT   11 WITH FORMAT: (FREE)              

            1
 ............
   1    6.000    



              HYD. COND. ALONG ROWS FOR LAYER  24
 READING ON UNIT   11 WITH FORMAT: (FREE)              

            1
 ............
   1    6.000    



                VERTICAL HYD. COND. FOR LAYER  24
 READING ON UNIT   11 WITH FORMAT: (FREE)              

            1
 ............
   1    6.000    



              HYD. COND. ALONG ROWS FOR LAYER  25
 READING ON UNIT   11 WITH FORMAT: (FREE)              

            1
 ............
   1    6.000    



                VERTICAL HYD. COND. FOR LAYER  25
 READING ON UNIT   11 WITH FORMAT: (FREE)              

            1
 ............
   1    6.000    



              HYD. COND. ALONG ROWS FOR LAYER  26
 READING ON UNIT   11 WITH FORMAT: (FREE)              

            1
 ............
   1    6.000    



                VERTICAL HYD. COND. FOR LAYER  26
 READING ON UNIT   11 WITH FORMAT: (FREE)              

            1
 ............
   1    6.000    



              HYD. COND. ALONG ROWS FOR LAYER  27
 READING ON UNIT   11 WITH FORMAT: (FREE)              

            1
 ............
   1    6.000    



                VERTICAL HYD. COND. FOR LAYER  27
 READING ON UNIT   11 WITH FORMAT: (FREE)              

            1
 ............
   1    6.000    



              HYD. COND. ALONG ROWS FOR LAYER  28
 READING ON UNIT   11 WITH FORMAT: (FREE)              

            1
 ............
   1    6.000    



                VERTICAL HYD. COND. FOR LAYER  28
 READING ON UNIT   11 WITH FORMAT: (FREE)              

            1
 ............
   1    6.000    



              HYD. COND. ALONG ROWS FOR LAYER  29
 READING ON UNIT   11 WITH FORMAT: (FREE)              

            1
 ............
   1    6.000    



                VERTICAL HYD. COND. FOR LAYER  29
 READING ON UNIT   11 WITH FORMAT: (FREE)              

            1
 ............
   1    6.000    



              HYD. COND. ALONG ROWS FOR LAYER  30
 READING ON UNIT   11 WITH FORMAT: (FREE)              

            1
 ............
   1    6.000    



                VERTICAL HYD. COND. FOR LAYER  30
 READING ON UNIT   11 WITH FORMAT: (FREE)              

            1
 ............
   1    6.000    



              HYD. COND. ALONG ROWS FOR LAYER  31
 READING ON UNIT   11 WITH FORMAT: (FREE)              

            1
 ............
   1    6.000    



                VERTICAL HYD. COND. FOR LAYER  31
 READING ON UNIT   11 WITH FORMAT: (FREE)              

            1
 ............
   1    6.000    



              HYD. COND. ALONG ROWS FOR LAYER  32
 READING ON UNIT   11 WITH FORMAT: (FREE)              

            1
 ............
   1    6.000    



                VERTICAL HYD. COND. FOR LAYER  32
 READING ON UNIT   11 WITH FORMAT: (FREE)              

            1
 ............
   1    6.000    



              HYD. COND. ALONG ROWS FOR LAYER  33
 READING ON UNIT   11 WITH FORMAT: (FREE)              

            1
 ............
   1    6.000    



                VERTICAL HYD. COND. FOR LAYER  33
 READING ON UNIT   11 WITH FORMAT: (FREE)              

            1
 ............
   1    6.000    



              HYD. COND. ALONG ROWS FOR LAYER  34
 READING ON UNIT   11 WITH FORMAT: (FREE)              

            1
 ............
   1    6.000    



                VERTICAL HYD. COND. FOR LAYER  34
 READING ON UNIT   11 WITH FORMAT: (FREE)              

            1
 ............
   1    6.000    



              HYD. COND. ALONG ROWS FOR LAYER  35
 READING ON UNIT   11 WITH FORMAT: (FREE)              

            1
 ............
   1    6.000    



                VERTICAL HYD. COND. FOR LAYER  35
 READING ON UNIT   11 WITH FORMAT: (FREE)              

            1
 ............
   1    6.000    



              HYD. COND. ALONG ROWS FOR LAYER  36
 READING ON UNIT   11 WITH FORMAT: (FREE)              

            1
 ............
   1    6.000    



                VERTICAL HYD. COND. FOR LAYER  36
 READING ON UNIT   11 WITH FORMAT: (FREE)              

            1
 ............
   1    6.000    



              HYD. COND. ALONG ROWS FOR LAYER  37
 READING ON UNIT   11 WITH FORMAT: (FREE)              

            1
 ............
   1    6.000    



                VERTICAL HYD. COND. FOR LAYER  37
 READING ON UNIT   11 WITH FORMAT: (FREE)              

            1
 ............
   1    6.000    



              HYD. COND. ALONG ROWS FOR LAYER  38
 READING ON UNIT   11 WITH FORMAT: (FREE)              

            1
 ............
   1    6.000    



                VERTICAL HYD. COND. FOR LAYER  38
 READING ON UNIT   11 WITH FORMAT: (FREE)              

            1
 ............
   1    6.000    



              HYD. COND. ALONG ROWS FOR LAYER  39
 READING ON UNIT   11 WITH FORMAT: (FREE)              

            1
 ............
   1    6.000    



                VERTICAL HYD. COND. FOR LAYER  39
 READING ON UNIT   11 WITH FORMAT: (FREE)              

            1
 ............
   1    6.000    



              HYD. COND. ALONG ROWS FOR LAYER  40
 READING ON UNIT   11 WITH FORMAT: (FREE)              

            1
 ............
   1    6.000    



                VERTICAL HYD. COND. FOR LAYER  40
 READING ON UNIT   11 WITH FORMAT: (FREE)              

            1
 ............
   1    6.000    



              HYD. COND. ALONG ROWS FOR LAYER  41
 READING ON UNIT   11 WITH FORMAT: (FREE)              

            1
 ............
   1    6.000    



                VERTICAL HYD. COND. FOR LAYER  41
 READING ON UNIT   11 WITH FORMAT: (FREE)              

            1
 ............
   1    6.000    



              HYD. COND. ALONG ROWS FOR LAYER  42
 READING ON UNIT   11 WITH FORMAT: (FREE)              

            1
 ............
   1    6.000    



                VERTICAL HYD. COND. FOR LAYER  42
 READING ON UNIT   11 WITH FORMAT: (FREE)              

            1
 ............
   1    6.000    



              HYD. COND. ALONG ROWS FOR LAYER  43
 READING ON UNIT   11 WITH FORMAT: (FREE)              

            1
 ............
   1    6.000    



                VERTICAL HYD. COND. FOR LAYER  43
 READING ON UNIT   11 WITH FORMAT: (FREE)              

            1
 ............
   1    6.000    



              HYD. COND. ALONG ROWS FOR LAYER  44
 READING ON UNIT   11 WITH FORMAT: (FREE)              

            1
 ............
   1    6.000    



                VERTICAL HYD. COND. FOR LAYER  44
 READING ON UNIT   11 WITH FORMAT: (FREE)              

            1
 ............
   1    6.000    



              HYD. COND. ALONG ROWS FOR LAYER  45
 READING ON UNIT   11 WITH FORMAT: (FREE)              

            1
 ............
   1    6.000    



                VERTICAL HYD. COND. FOR LAYER  45
 READING ON UNIT   11 WITH FORMAT: (FREE)              

            1
 ............
   1    6.000    



              HYD. COND. ALONG ROWS FOR LAYER  46
 READING ON UNIT   11 WITH FORMAT: (FREE)              

            1
 ............
   1    6.000    



                VERTICAL HYD. COND. FOR LAYER  46
 READING ON UNIT   11 WITH FORMAT: (FREE)              

            1
 ............
   1    6.000    



              HYD. COND. ALONG ROWS FOR LAYER  47
 READING ON UNIT   11 WITH FORMAT: (FREE)              

            1
 ............
   1    6.000    



                VERTICAL HYD. COND. FOR LAYER  47
 READING ON UNIT   11 WITH FORMAT: (FREE)              

            1
 ............
   1    6.000    



              HYD. COND. ALONG ROWS FOR LAYER  48
 READING ON UNIT   11 WITH FORMAT: (FREE)              

            1
 ............
   1    6.000    



                VERTICAL HYD. COND. FOR LAYER  48
 READING ON UNIT   11 WITH FORMAT: (FREE)              

            1
 ............
   1    6.000    



              HYD. COND. ALONG ROWS FOR LAYER  49
 READING ON UNIT   11 WITH FORMAT: (FREE)              

            1
 ............
   1    6.000    



                VERTICAL HYD. COND. FOR LAYER  49
 READING ON UNIT   11 WITH FORMAT: (FREE)              

            1
 ............
   1    6.000    



              HYD. COND. ALONG ROWS FOR LAYER  50
 READING ON UNIT   11 WITH FORMAT: (FREE)              

            1
 ............
   1    6.000    



                VERTICAL HYD. COND. FOR LAYER  50
 READING ON UNIT   11 WITH FORMAT: (FREE)              

            1
 ............
   1    6.000    



              HYD. COND. ALONG ROWS FOR LAYER  51
 READING ON UNIT   11 WITH FORMAT: (FREE)              

            1
 ............
   1    1.000    



                VERTICAL HYD. COND. FOR LAYER  51
 READING ON UNIT   11 WITH FORMAT: (FREE)              

            1
 ............
   1    1.000    



              HYD. COND. ALONG ROWS FOR LAYER  52
 READING ON UNIT   11 WITH FORMAT: (FREE)              

            1
 ............
   1    1.000    



                VERTICAL HYD. COND. FOR LAYER  52
 READING ON UNIT   11 WITH FORMAT: (FREE)              

            1
 ............
   1    1.000    



              HYD. COND. ALONG ROWS FOR LAYER  53
 READING ON UNIT   11 WITH FORMAT: (FREE)              

            1
 ............
   1    1.000    



                VERTICAL HYD. COND. FOR LAYER  53
 READING ON UNIT   11 WITH FORMAT: (FREE)              

            1
 ............
   1    1.000    



              HYD. COND. ALONG ROWS FOR LAYER  54
 READING ON UNIT   11 WITH FORMAT: (FREE)              

            1
 ............
   1    1.000    



                VERTICAL HYD. COND. FOR LAYER  54
 READING ON UNIT   11 WITH FORMAT: (FREE)              

            1
 ............
   1    1.000    



              HYD. COND. ALONG ROWS FOR LAYER  55
 READING ON UNIT   11 WITH FORMAT: (FREE)              

            1
 ............
   1    1.000    



                VERTICAL HYD. COND. FOR LAYER  55
 READING ON UNIT   11 WITH FORMAT: (FREE)              

            1
 ............
   1    1.000    



              HYD. COND. ALONG ROWS FOR LAYER  56
 READING ON UNIT   11 WITH FORMAT: (FREE)              

            1
 ............
   1    1.000    



                VERTICAL HYD. COND. FOR LAYER  56
 READING ON UNIT   11 WITH FORMAT: (FREE)              

            1
 ............
   1    1.000    



              HYD. COND. ALONG ROWS FOR LAYER  57
 READING ON UNIT   11 WITH FORMAT: (FREE)              

            1
 ............
   1    1.000    



                VERTICAL HYD. COND. FOR LAYER  57
 READING ON UNIT   11 WITH FORMAT: (FREE)              

            1
 ............
   1    1.000    



              HYD. COND. ALONG ROWS FOR LAYER  58
 READING ON UNIT   11 WITH FORMAT: (FREE)              

            1
 ............
   1    1.000    



                VERTICAL HYD. COND. FOR LAYER  58
 READING ON UNIT   11 WITH FORMAT: (FREE)              

            1
 ............
   1    1.000    



              HYD. COND. ALONG ROWS FOR LAYER  59
 READING ON UNIT   11 WITH FORMAT: (FREE)              

            1
 ............
   1    1.000    



                VERTICAL HYD. COND. FOR LAYER  59
 READING ON UNIT   11 WITH FORMAT: (FREE)              

            1
 ............
   1    1.000    



              HYD. COND. ALONG ROWS FOR LAYER  60
 READING ON UNIT   11 WITH FORMAT: (FREE)              

            1
 ............
   1    1.000    



                VERTICAL HYD. COND. FOR LAYER  60
 READING ON UNIT   11 WITH FORMAT: (FREE)              

            1
 ............
   1    1.000    



              HYD. COND. ALONG ROWS FOR LAYER  61
 READING ON UNIT   11 WITH FORMAT: (FREE)              

            1
 ............
   1    1.000    



                VERTICAL HYD. COND. FOR LAYER  61
 READING ON UNIT   11 WITH FORMAT: (FREE)              

            1
 ............
   1    1.000    



              HYD. COND. ALONG ROWS FOR LAYER  62
 READING ON UNIT   11 WITH FORMAT: (FREE)              

            1
 ............
   1    1.000    



                VERTICAL HYD. COND. FOR LAYER  62
 READING ON UNIT   11 WITH FORMAT: (FREE)              

            1
 ............
   1    1.000    



              HYD. COND. ALONG ROWS FOR LAYER  63
 READING ON UNIT   11 WITH FORMAT: (FREE)              

            1
 ............
   1    1.000    



                VERTICAL HYD. COND. FOR LAYER  63
 READING ON UNIT   11 WITH FORMAT: (FREE)              

            1
 ............
   1    1.000    



              HYD. COND. ALONG ROWS FOR LAYER  64
 READING ON UNIT   11 WITH FORMAT: (FREE)              

            1
 ............
   1    1.000    



                VERTICAL HYD. COND. FOR LAYER  64
 READING ON UNIT   11 WITH FORMAT: (FREE)              

            1
 ............
   1    1.000    



              HYD. COND. ALONG ROWS FOR LAYER  65
 READING ON UNIT   11 WITH FORMAT: (FREE)              

            1
 ............
   1    1.000    



                VERTICAL HYD. COND. FOR LAYER  65
 READING ON UNIT   11 WITH FORMAT: (FREE)              

            1
 ............
   1    1.000    



              HYD. COND. ALONG ROWS FOR LAYER  66
 READING ON UNIT   11 WITH FORMAT: (FREE)              

            1
 ............
   1    1.000    



                VERTICAL HYD. COND. FOR LAYER  66
 READING ON UNIT   11 WITH FORMAT: (FREE)              

            1
 ............
   1    1.000    



              HYD. COND. ALONG ROWS FOR LAYER  67
 READING ON UNIT   11 WITH FORMAT: (FREE)              

            1
 ............
   1    1.000    



                VERTICAL HYD. COND. FOR LAYER  67
 READING ON UNIT   11 WITH FORMAT: (FREE)              

            1
 ............
   1    1.000    



              HYD. COND. ALONG ROWS FOR LAYER  68
 READING ON UNIT   11 WITH FORMAT: (FREE)              

            1
 ............
   1    1.000    



                VERTICAL HYD. COND. FOR LAYER  68
 READING ON UNIT   11 WITH FORMAT: (FREE)              

            1
 ............
   1    1.000    



              HYD. COND. ALONG ROWS FOR LAYER  69
 READING ON UNIT   11 WITH FORMAT: (FREE)              

            1
 ............
   1    1.000    



                VERTICAL HYD. COND. FOR LAYER  69
 READING ON UNIT   11 WITH FORMAT: (FREE)              

            1
 ............
   1    1.000    



              HYD. COND. ALONG ROWS FOR LAYER  70
 READING ON UNIT   11 WITH FORMAT: (FREE)              

            1
 ............
   1    1.000    



                VERTICAL HYD. COND. FOR LAYER  70
 READING ON UNIT   11 WITH FORMAT: (FREE)              

            1
 ............
   1    1.000    



              HYD. COND. ALONG ROWS FOR LAYER  71
 READING ON UNIT   11 WITH FORMAT: (FREE)              

            1
 ............
   1    1.000    



                VERTICAL HYD. COND. FOR LAYER  71
 READING ON UNIT   11 WITH FORMAT: (FREE)              

            1
 ............
   1    1.000    



              HYD. COND. ALONG ROWS FOR LAYER  72
 READING ON UNIT   11 WITH FORMAT: (FREE)              

            1
 ............
   1    1.000    



                VERTICAL HYD. COND. FOR LAYER  72
 READING ON UNIT   11 WITH FORMAT: (FREE)              

            1
 ............
   1    1.000    



              HYD. COND. ALONG ROWS FOR LAYER  73
 READING ON UNIT   11 WITH FORMAT: (FREE)              

            1
 ............
   1    1.000    



                VERTICAL HYD. COND. FOR LAYER  73
 READING ON UNIT   11 WITH FORMAT: (FREE)              

            1
 ............
   1    1.000    



              HYD. COND. ALONG ROWS FOR LAYER  74
 READING ON UNIT   11 WITH FORMAT: (FREE)              

            1
 ............
   1    1.000    



                VERTICAL HYD. COND. FOR LAYER  74
 READING ON UNIT   11 WITH FORMAT: (FREE)              

            1
 ............
   1    1.000    



              HYD. COND. ALONG ROWS FOR LAYER  75
 READING ON UNIT   11 WITH FORMAT: (FREE)              

            1
 ............
   1    1.000    



                VERTICAL HYD. COND. FOR LAYER  75
 READING ON UNIT   11 WITH FORMAT: (FREE)              

            1
 ............
   1    1.000    



              HYD. COND. ALONG ROWS FOR LAYER  76
 READING ON UNIT   11 WITH FORMAT: (FREE)              

            1
 ............
   1    1.000    



                VERTICAL HYD. COND. FOR LAYER  76
 READING ON UNIT   11 WITH FORMAT: (FREE)              

            1
 ............
   1    1.000    



              HYD. COND. ALONG ROWS FOR LAYER  77
 READING ON UNIT   11 WITH FORMAT: (FREE)              

            1
 ............
   1    1.000    



                VERTICAL HYD. COND. FOR LAYER  77
 READING ON UNIT   11 WITH FORMAT: (FREE)              

            1
 ............
   1    1.000    



              HYD. COND. ALONG ROWS FOR LAYER  78
 READING ON UNIT   11 WITH FORMAT: (FREE)              

            1
 ............
   1    1.000    



                VERTICAL HYD. COND. FOR LAYER  78
 READING ON UNIT   11 WITH FORMAT: (FREE)              

            1
 ............
   1    1.000    



              HYD. COND. ALONG ROWS FOR LAYER  79
 READING ON UNIT   11 WITH FORMAT: (FREE)              

            1
 ............
   1    1.000    



                VERTICAL HYD. COND. FOR LAYER  79
 READING ON UNIT   11 WITH FORMAT: (FREE)              

            1
 ............
   1    1.000    



              HYD. COND. ALONG ROWS FOR LAYER  80
 READING ON UNIT   11 WITH FORMAT: (FREE)              

            1
 ............
   1    1.000    



                VERTICAL HYD. COND. FOR LAYER  80
 READING ON UNIT   11 WITH FORMAT: (FREE)              

            1
 ............
   1    1.000    



              HYD. COND. ALONG ROWS FOR LAYER  81
 READING ON UNIT   11 WITH FORMAT: (FREE)              

            1
 ............
   1    1.000    



                VERTICAL HYD. COND. FOR LAYER  81
 READING ON UNIT   11 WITH FORMAT: (FREE)              

            1
 ............
   1    1.000    



              HYD. COND. ALONG ROWS FOR LAYER  82
 READING ON UNIT   11 WITH FORMAT: (FREE)              

            1
 ............
   1    1.000    



                VERTICAL HYD. COND. FOR LAYER  82
 READING ON UNIT   11 WITH FORMAT: (FREE)              

            1
 ............
   1    1.000    



              HYD. COND. ALONG ROWS FOR LAYER  83
 READING ON UNIT   11 WITH FORMAT: (FREE)              

            1
 ............
   1    1.000    



                VERTICAL HYD. COND. FOR LAYER  83
 READING ON UNIT   11 WITH FORMAT: (FREE)              

            1
 ............
   1    1.000    



              HYD. COND. ALONG ROWS FOR LAYER  84
 READING ON UNIT   11 WITH FORMAT: (FREE)              

            1
 ............
   1    1.000    



                VERTICAL HYD. COND. FOR LAYER  84
 READING ON UNIT   11 WITH FORMAT: (FREE)              

            1
 ............
   1    1.000    



              HYD. COND. ALONG ROWS FOR LAYER  85
 READING ON UNIT   11 WITH FORMAT: (FREE)              

            1
 ............
   1    1.000    



                VERTICAL HYD. COND. FOR LAYER  85
 READING ON UNIT   11 WITH FORMAT: (FREE)              

            1
 ............
   1    1.000    



              HYD. COND. ALONG ROWS FOR LAYER  86
 READING ON UNIT   11 WITH FORMAT: (FREE)              

            1
 ............
   1    1.000    



                VERTICAL HYD. COND. FOR LAYER  86
 READING ON UNIT   11 WITH FORMAT: (FREE)              

            1
 ............
   1    1.000    



              HYD. COND. ALONG ROWS FOR LAYER  87
 READING ON UNIT   11 WITH FORMAT: (FREE)              

            1
 ............
   1    1.000    



                VERTICAL HYD. COND. FOR LAYER  87
 READING ON UNIT   11 WITH FORMAT: (FREE)              

            1
 ............
   1    1.000    



              HYD. COND. ALONG ROWS FOR LAYER  88
 READING ON UNIT   11 WITH FORMAT: (FREE)              

            1
 ............
   1    1.000    



                VERTICAL HYD. COND. FOR LAYER  88
 READING ON UNIT   11 WITH FORMAT: (FREE)              

            1
 ............
   1    1.000    



              HYD. COND. ALONG ROWS FOR LAYER  89
 READING ON UNIT   11 WITH FORMAT: (FREE)              

            1
 ............
   1    1.000    



                VERTICAL HYD. COND. FOR LAYER  89
 READING ON UNIT   11 WITH FORMAT: (FREE)              

            1
 ............
   1    1.000    



              HYD. COND. ALONG ROWS FOR LAYER  90
 READING ON UNIT   11 WITH FORMAT: (FREE)              

            1
 ............
[...]

            1
 ............
   1    1.000    



              HYD. COND. ALONG ROWS FOR LAYER 164
 READING ON UNIT   11 WITH FORMAT: (FREE)              

            1
 ............
   1    1.000    



                VERTICAL HYD. COND. FOR LAYER 164
 READING ON UNIT   11 WITH FORMAT: (FREE)              

            1
 ............
   1    1.000    



              HYD. COND. ALONG ROWS FOR LAYER 165
 READING ON UNIT   11 WITH FORMAT: (FREE)              

            1
 ............
   1    1.000    



                VERTICAL HYD. COND. FOR LAYER 165
 READING ON UNIT   11 WITH FORMAT: (FREE)              

            1
 ............
   1    1.000    



              HYD. COND. ALONG ROWS FOR LAYER 166
 READING ON UNIT   11 WITH FORMAT: (FREE)              

            1
 ............
   1    1.000    



                VERTICAL HYD. COND. FOR LAYER 166
 READING ON UNIT   11 WITH FORMAT: (FREE)              

            1
 ............
   1    1.000    



              HYD. COND. ALONG ROWS FOR LAYER 167
 READING ON UNIT   11 WITH FORMAT: (FREE)              

            1
 ............
   1    1.000    



                VERTICAL HYD. COND. FOR LAYER 167
 READING ON UNIT   11 WITH FORMAT: (FREE)              

            1
 ............
   1    1.000    



              HYD. COND. ALONG ROWS FOR LAYER 168
 READING ON UNIT   11 WITH FORMAT: (FREE)              

            1
 ............
   1    1.000    



                VERTICAL HYD. COND. FOR LAYER 168
 READING ON UNIT   11 WITH FORMAT: (FREE)              

            1
 ............
   1    1.000    



              HYD. COND. ALONG ROWS FOR LAYER 169
 READING ON UNIT   11 WITH FORMAT: (FREE)              

            1
 ............
   1    1.000    



                VERTICAL HYD. COND. FOR LAYER 169
 READING ON UNIT   11 WITH FORMAT: (FREE)              

            1
 ............
   1    1.000    



              HYD. COND. ALONG ROWS FOR LAYER 170
 READING ON UNIT   11 WITH FORMAT: (FREE)              

            1
 ............
   1    1.000    



                VERTICAL HYD. COND. FOR LAYER 170
 READING ON UNIT   11 WITH FORMAT: (FREE)              

            1
 ............
   1    1.000    



              HYD. COND. ALONG ROWS FOR LAYER 171
 READING ON UNIT   11 WITH FORMAT: (FREE)              

            1
 ............
   1    1.000    



                VERTICAL HYD. COND. FOR LAYER 171
 READING ON UNIT   11 WITH FORMAT: (FREE)              

            1
 ............
   1    1.000    



              HYD. COND. ALONG ROWS FOR LAYER 172
 READING ON UNIT   11 WITH FORMAT: (FREE)              

            1
 ............
   1    1.000    



                VERTICAL HYD. COND. FOR LAYER 172
 READING ON UNIT   11 WITH FORMAT: (FREE)              

            1
 ............
   1    1.000    



              HYD. COND. ALONG ROWS FOR LAYER 173
 READING ON UNIT   11 WITH FORMAT: (FREE)              

            1
 ............
   1    1.000    



                VERTICAL HYD. COND. FOR LAYER 173
 READING ON UNIT   11 WITH FORMAT: (FREE)              

            1
 ............
   1    1.000    



              HYD. COND. ALONG ROWS FOR LAYER 174
 READING ON UNIT   11 WITH FORMAT: (FREE)              

            1
 ............
   1    1.000    



                VERTICAL HYD. COND. FOR LAYER 174
 READING ON UNIT   11 WITH FORMAT: (FREE)              

            1
 ............
   1    1.000    



              HYD. COND. ALONG ROWS FOR LAYER 175
 READING ON UNIT   11 WITH FORMAT: (FREE)              

            1
 ............
   1    1.000    



                VERTICAL HYD. COND. FOR LAYER 175
 READING ON UNIT   11 WITH FORMAT: (FREE)              

            1
 ............
   1    1.000    



              HYD. COND. ALONG ROWS FOR LAYER 176
 READING ON UNIT   11 WITH FORMAT: (FREE)              

            1
 ............
   1    1.000    



                VERTICAL HYD. COND. FOR LAYER 176
 READING ON UNIT   11 WITH FORMAT: (FREE)              

            1
 ............
   1    1.000    



              HYD. COND. ALONG ROWS FOR LAYER 177
 READING ON UNIT   11 WITH FORMAT: (FREE)              

            1
 ............
   1    1.000    



                VERTICAL HYD. COND. FOR LAYER 177
 READING ON UNIT   11 WITH FORMAT: (FREE)              

            1
 ............
   1    1.000    



              HYD. COND. ALONG ROWS FOR LAYER 178
 READING ON UNIT   11 WITH FORMAT: (FREE)              

            1
 ............
   1    1.000    



                VERTICAL HYD. COND. FOR LAYER 178
 READING ON UNIT   11 WITH FORMAT: (FREE)              

            1
 ............
   1    1.000    



              HYD. COND. ALONG ROWS FOR LAYER 179
 READING ON UNIT   11 WITH FORMAT: (FREE)              

            1
 ............
   1    1.000    



                VERTICAL HYD. COND. FOR LAYER 179
 READING ON UNIT   11 WITH FORMAT: (FREE)              

            1
 ............
   1    1.000    



              HYD. COND. ALONG ROWS FOR LAYER 180
 READING ON UNIT   11 WITH FORMAT: (FREE)              

            1
 ............
   1    1.000    



                VERTICAL HYD. COND. FOR LAYER 180
 READING ON UNIT   11 WITH FORMAT: (FREE)              

            1
 ............
   1    1.000    



              HYD. COND. ALONG ROWS FOR LAYER 181
 READING ON UNIT   11 WITH FORMAT: (FREE)              

            1
 ............
   1    1.000    



                VERTICAL HYD. COND. FOR LAYER 181
 READING ON UNIT   11 WITH FORMAT: (FREE)              

            1
 ............
   1    1.000    



              HYD. COND. ALONG ROWS FOR LAYER 182
 READING ON UNIT   11 WITH FORMAT: (FREE)              

            1
 ............
   1    1.000    



                VERTICAL HYD. COND. FOR LAYER 182
 READING ON UNIT   11 WITH FORMAT: (FREE)              

            1
 ............
   1    1.000    



              HYD. COND. ALONG ROWS FOR LAYER 183
 READING ON UNIT   11 WITH FORMAT: (FREE)              

            1
 ............
   1    1.000    



                VERTICAL HYD. COND. FOR LAYER 183
 READING ON UNIT   11 WITH FORMAT: (FREE)              

            1
 ............
   1    1.000    



              HYD. COND. ALONG ROWS FOR LAYER 184
 READING ON UNIT   11 WITH FORMAT: (FREE)              

            1
 ............
   1    1.000    



                VERTICAL HYD. COND. FOR LAYER 184
 READING ON UNIT   11 WITH FORMAT: (FREE)              

            1
 ............
   1    1.000    



              HYD. COND. ALONG ROWS FOR LAYER 185
 READING ON UNIT   11 WITH FORMAT: (FREE)              

            1
 ............
   1    1.000    



                VERTICAL HYD. COND. FOR LAYER 185
 READING ON UNIT   11 WITH FORMAT: (FREE)              

            1
 ............
   1    1.000    



              HYD. COND. ALONG ROWS FOR LAYER 186
 READING ON UNIT   11 WITH FORMAT: (FREE)              

            1
 ............
   1    1.000    



                VERTICAL HYD. COND. FOR LAYER 186
 READING ON UNIT   11 WITH FORMAT: (FREE)              

            1
 ............
   1    1.000    



              HYD. COND. ALONG ROWS FOR LAYER 187
 READING ON UNIT   11 WITH FORMAT: (FREE)              

            1
 ............
   1    1.000    



                VERTICAL HYD. COND. FOR LAYER 187
 READING ON UNIT   11 WITH FORMAT: (FREE)              

            1
 ............
   1    1.000    



              HYD. COND. ALONG ROWS FOR LAYER 188
 READING ON UNIT   11 WITH FORMAT: (FREE)              

            1
 ............
   1    1.000    



                VERTICAL HYD. COND. FOR LAYER 188
 READING ON UNIT   11 WITH FORMAT: (FREE)              

            1
 ............
   1    1.000    



              HYD. COND. ALONG ROWS FOR LAYER 189
 READING ON UNIT   11 WITH FORMAT: (FREE)              

            1
 ............
   1    1.000    



                VERTICAL HYD. COND. FOR LAYER 189
 READING ON UNIT   11 WITH FORMAT: (FREE)              

            1
 ............
   1    1.000    



              HYD. COND. ALONG ROWS FOR LAYER 190
 READING ON UNIT   11 WITH FORMAT: (FREE)              

            1
 ............
   1    1.000    



                VERTICAL HYD. COND. FOR LAYER 190
 READING ON UNIT   11 WITH FORMAT: (FREE)              

            1
 ............
   1    1.000    



              HYD. COND. ALONG ROWS FOR LAYER 191
 READING ON UNIT   11 WITH FORMAT: (FREE)              

            1
 ............
   1    1.000    



                VERTICAL HYD. COND. FOR LAYER 191
 READING ON UNIT   11 WITH FORMAT: (FREE)              

            1
 ............
   1    1.000    



              HYD. COND. ALONG ROWS FOR LAYER 192
 READING ON UNIT   11 WITH FORMAT: (FREE)              

            1
 ............
   1    1.000    



                VERTICAL HYD. COND. FOR LAYER 192
 READING ON UNIT   11 WITH FORMAT: (FREE)              

            1
 ............
   1    1.000    



              HYD. COND. ALONG ROWS FOR LAYER 193
 READING ON UNIT   11 WITH FORMAT: (FREE)              

            1
 ............
   1    1.000    



                VERTICAL HYD. COND. FOR LAYER 193
 READING ON UNIT   11 WITH FORMAT: (FREE)              

            1
 ............
   1    1.000    



              HYD. COND. ALONG ROWS FOR LAYER 194
 READING ON UNIT   11 WITH FORMAT: (FREE)              

            1
 ............
   1    1.000    



                VERTICAL HYD. COND. FOR LAYER 194
 READING ON UNIT   11 WITH FORMAT: (FREE)              

            1
 ............
   1    1.000    



              HYD. COND. ALONG ROWS FOR LAYER 195
 READING ON UNIT   11 WITH FORMAT: (FREE)              

            1
 ............
   1    1.000    



                VERTICAL HYD. COND. FOR LAYER 195
 READING ON UNIT   11 WITH FORMAT: (FREE)              

            1
 ............
   1    1.000    



              HYD. COND. ALONG ROWS FOR LAYER 196
 READING ON UNIT   11 WITH FORMAT: (FREE)              

            1
 ............
   1    1.000    



                VERTICAL HYD. COND. FOR LAYER 196
 READING ON UNIT   11 WITH FORMAT: (FREE)              

            1
 ............
   1    1.000    



              HYD. COND. ALONG ROWS FOR LAYER 197
 READING ON UNIT   11 WITH FORMAT: (FREE)              

            1
 ............
   1    1.000    



                VERTICAL HYD. COND. FOR LAYER 197
 READING ON UNIT   11 WITH FORMAT: (FREE)              

            1
 ............
   1    1.000    



              HYD. COND. ALONG ROWS FOR LAYER 198
 READING ON UNIT   11 WITH FORMAT: (FREE)              

            1
 ............
   1    1.000    



                VERTICAL HYD. COND. FOR LAYER 198
 READING ON UNIT   11 WITH FORMAT: (FREE)              

            1
 ............
   1    1.000    



              HYD. COND. ALONG ROWS FOR LAYER 199
 READING ON UNIT   11 WITH FORMAT: (FREE)              

            1
 ............
   1    1.000    



                VERTICAL HYD. COND. FOR LAYER 199
 READING ON UNIT   11 WITH FORMAT: (FREE)              

            1
 ............
   1    1.000    



              HYD. COND. ALONG ROWS FOR LAYER 200
 READING ON UNIT   11 WITH FORMAT: (FREE)              

            1
 ............
   1    1.000    



                VERTICAL HYD. COND. FOR LAYER 200
 READING ON UNIT   11 WITH FORMAT: (FREE)              

            1
 ............
   1    1.000    

 PCG -- CONJUGATE-GRADIENT SOLUTION PACKAGE, VERSION 7, 5/2/2005
 # Preconditioned conjugate-gradient package
 MAXIMUM OF     50 CALLS OF SOLUTION ROUTINE
 MAXIMUM OF     30 INTERNAL ITERATIONS PER CALL TO SOLUTION ROUTINE
 MATRIX PRECONDITIONING TYPE :    1



                                    SOLUTION BY THE CONJUGATE-GRADIENT METHOD
                                   -------------------------------------------
                    MAXIMUM NUMBER OF CALLS TO PCG ROUTINE =       50
                        MAXIMUM ITERATIONS PER CALL TO PCG =       30
                               MATRIX PRECONDITIONING TYPE =        1
        RELAXATION FACTOR (ONLY USED WITH PRECOND. TYPE 1) =    0.10000E+01
 PARAMETER OF POLYNOMIAL PRECOND. = 2 (2) OR IS CALCULATED :        2
                         HEAD CHANGE CRITERION FOR CLOSURE =    0.10000E-02
                     RESIDUAL CHANGE CRITERION FOR CLOSURE =    0.10000E-02
            PCG HEAD AND RESIDUAL CHANGE PRINTOUT INTERVAL =        1
     PRINTING FROM SOLVER IS LIMITED(1) OR SUPPRESSED (>1) =        1
                            STEADY-STATE DAMPING PARAMETER =    0.10000E+01
                               TRANSIENT DAMPING PARAMETER =    0.10000E+01

 WARNING READING LMT PACKAGE INPUT DATA:
 [STANDARD] HEADER NO LONGER SUPPORTED; [EXTENDED] HEADER USED INSTEAD.


 ***Link-MT3DMS Package v7***
 OPENING LINK-MT3DMS OUTPUT FILE: C:/Users/huan1428/Documents/esci5331_hydro_modeling/assignment_5/model_runs/lower_flux/test.flo                                                                                                         
 ON UNIT NUMBER:   333
 FILE TYPE: UNFORMATTED
 HEADER OPTION: EXTENDED
 ***Link-MT3DMS Package v7***

1
                            STRESS PERIOD NO.    1, LENGTH =   1.000000    
                            -----------------------------------------------

                              NUMBER OF TIME STEPS =     1

                               MULTIPLIER FOR DELT =     1.000

                            INITIAL TIME STEP SIZE =   1.000000    
 
 SOLVING FOR HEAD 


     1 CALLS TO PCG ROUTINE FOR TIME STEP   1 IN STRESS PERIOD    1
     1 TOTAL ITERATIONS

 OUTPUT CONTROL FOR STRESS PERIOD    1   TIME STEP    1
    PRINT HEAD FOR ALL LAYERS
    SAVE HEAD FOR ALL LAYERS
    PRINT BUDGET
    SAVE BUDGET
    SAVE IBOUND FOR ALL LAYERS
 UBDSV2 SAVING "   CONSTANT HEAD" ON UNIT  34 AT TIME STEP  1, STRESS PERIOD   1
 UBDSV1 SAVING "FLOW LOWER FACE " ON UNIT  34 AT TIME STEP  1, STRESS PERIOD   1

 SAVING SATURATED THICKNESS AND FLOW TERMS ON UNIT  333 FOR MT3DMS
 BY THE LINK-MT3DMS PACKAGE V7 AT TIME STEP    1, STRESS PERIOD    1

1
             HEAD FOR CROSS SECTION AT END OF TIME STEP  1 IN STRESS PERIOD    1
 -------------------------------------------------------------------------------

            1
 ............
   1    1.500    
   2    1.500    
   3    1.500    
   4    1.500    
   5    1.500    
   6    1.500    
   7    1.500    
   8    1.500    
   9    1.500    
  10    1.500    
  11    1.500    
  12    1.500    
  13    1.500    
  14    1.500    
  15    1.500    
  16    1.500    
  17    1.500    
  18    1.500    
  19    1.500    
  20    1.500    
  21    1.500    
  22    1.500    
  23    1.500    
  24    1.500    
  25    1.500    
  26    1.500    
  27    1.500    
  28    1.500    
  29    1.500    
  30    1.500    
  31    1.500    
  32    1.500    
  33    1.500    
  34    1.500    
  35    1.500    
  36    1.500    
  37    1.500    
  38    1.500    
  39    1.500    
  40    1.500    
  41    1.500    
  42    1.500    
  43    1.500    
  44    1.500    
  45    1.500    
  46    1.500    
  47    1.500    
  48    1.500    
  49    1.500    
  50    1.500    
  51    1.500    
  52    1.500    
  53    1.500    
  54    1.500    
  55    1.500    
  56    1.500    
  57    1.500    
  58    1.500    
  59    1.500    
  60    1.500    
  61    1.500    
  62    1.500    
  63    1.500    
  64    1.500    
  65    1.500    
  66    1.500    
  67    1.500    
  68    1.500    
  69    1.500    
  70    1.500    
  71    1.500    
  72    1.500    
  73    1.500    
  74    1.500    
  75    1.500    
  76    1.500    
  77    1.500    
  78    1.500    
  79    1.500    
  80    1.500    
  81    1.500    
  82    1.500    
  83    1.500    
  84    1.500    
  85    1.500    
  86    1.500    
  87    1.500    
  88    1.500    
  89    1.500    
  90    1.500    
  91    1.500    
  92    1.500    
  93    1.500    
  94    1.500    
  95    1.500    
  96    1.500    
  97    1.500    
  98    1.500    
  99    1.500    
 100    1.500    
 101    1.500    
 102    1.500    
 103    1.500    
 104    1.500    
 105    1.500    
 106    1.500    
 107    1.500    
 108    1.500    
 109    1.500    
 110    1.500    
 111    1.500    
 112    1.500    
 113    1.500    
 114    1.500    
 115    1.500    
 116    1.500    
 117    1.500    
 118    1.500    
 119    1.500    
 120    1.500    
 121    1.500    
 122    1.500    
 123    1.500    
 124    1.500    
 125    1.500    
 126    1.500    
 127    1.500    
 128    1.500    
 129    1.500    
 130    1.500    
 131    1.500    
 132    1.500    
 133    1.500    
 134    1.500    
 135    1.500    
 136    1.500    
 137    1.500    
 138    1.500    
 139    1.500    
 140    1.500    
 141    1.500    
 142    1.500    
 143    1.500    
 144    1.500    
 145    1.500    
 146    1.500    
 147    1.500    
 148    1.500    
 149    1.500    
 150    1.500    
 151    1.500    
 152    1.500    
 153    1.500    
 154    1.500    
 155    1.500    
 156    1.500    
 157    1.500    
 158    1.500    
 159    1.500    
 160    1.500    
 161    1.500    
 162    1.500    
 163    1.500    
 164    1.500    
 165    1.500    
 166    1.500    
 167    1.500    
 168    1.500    
 169    1.500    
 170    1.500    
 171    1.500    
 172    1.500    
 173    1.500    
 174    1.500    
 175    1.500    
 176    1.500    
 177    1.500    
 178    1.500    
 179    1.500    
 180    1.500    
 181    1.500    
 182    1.500    
 183    1.500    
 184    1.500    
 185    1.500    
 186    1.500    
 187    1.500    
 188    1.500    
 189    1.500    
 190    1.500    
 191    1.500    
 192    1.500    
 193    1.500    
 194    1.500    
 195    1.500    
 196    1.500    
 197    1.500    
 198    1.500    
 199    1.500    
 200    1.500    

 HEAD WILL BE SAVED ON UNIT   51 AT END OF TIME STEP    1, STRESS PERIOD    1

 IBOUND WILL BE SAVED ON UNIT   52 AT END OF TIME STEP    1, STRESS PERIOD    1
1
  VOLUMETRIC BUDGET FOR ENTIRE MODEL AT END OF TIME STEP    1, STRESS PERIOD   1
  ------------------------------------------------------------------------------

     CUMULATIVE VOLUMES      L**3       RATES FOR THIS TIME STEP      L**3/T
     ------------------                 ------------------------

           IN:                                      IN:
           ---                                      ---
             STORAGE =           0.0000               STORAGE =           0.0000
       CONSTANT HEAD =       4.3364E-05         CONSTANT HEAD =       4.3364E-05

            TOTAL IN =       4.3364E-05              TOTAL IN =       4.3364E-05

          OUT:                                     OUT:
          ----                                     ----
             STORAGE =           0.0000               STORAGE =           0.0000
       CONSTANT HEAD =       4.3364E-05         CONSTANT HEAD =       4.3364E-05

           TOTAL OUT =       4.3364E-05             TOTAL OUT =       4.3364E-05

            IN - OUT =       3.1650E-10              IN - OUT =       3.1650E-10

 PERCENT DISCREPANCY =           0.00     PERCENT DISCREPANCY =           0.00






         TIME SUMMARY AT END OF TIME STEP    1 IN STRESS PERIOD    1
                    SECONDS     MINUTES      HOURS       DAYS        YEARS
                    -----------------------------------------------------------
   TIME STEP LENGTH  86400.      1440.0      24.000      1.0000     2.73785E-03
 STRESS PERIOD TIME  86400.      1440.0      24.000      1.0000     2.73785E-03
         TOTAL TIME  86400.      1440.0      24.000      1.0000     2.73785E-03
1

 Run end date and time (yyyy/mm/dd hh:mm:ss): 2024/11/09 13:07:59
 Elapsed run time:  0.114 Seconds

