                                  MODFLOW-2005     
      U.S. GEOLOGICAL SURVEY MODULAR FINITE-DIFFERENCE GROUND-WATER FLOW MODEL
                            VERSION 1.12.00 2/3/2017

 LIST FILE: C:/Users/huan1428/Documents/esci5331_hydro_modeling/assignment_5/model_runs/2d_flow_recharge/test.lst
                         UNIT    7

 OPENING C:/Users/huan1428/Documents/esci5331_hydro_modeling/assignment_5/model_runs/2d_flow_recharge/test_1D.ba6
 FILE TYPE:BAS6   UNIT    8   STATUS:OLD    
 FORMAT:FORMATTED              ACCESS:SEQUENTIAL          

 OPENING C:/Users/huan1428/Documents/esci5331_hydro_modeling/assignment_5/model_runs/2d_flow_recharge/test_1D.lpf
 FILE TYPE:LPF   UNIT   11   STATUS:OLD    
 FORMAT:FORMATTED              ACCESS:SEQUENTIAL          

 OPENING C:/Users/huan1428/Documents/esci5331_hydro_modeling/assignment_5/model_runs/2d_flow_recharge/test.rch
 FILE TYPE:RCH   UNIT   18   STATUS:OLD    
 FORMAT:FORMATTED              ACCESS:SEQUENTIAL          

 OPENING C:/Users/huan1428/Documents/esci5331_hydro_modeling/assignment_5/model_runs/2d_flow_recharge/test.pcg
 FILE TYPE:PCG   UNIT   19   STATUS:OLD    
 FORMAT:FORMATTED              ACCESS:SEQUENTIAL          

 OPENING C:/Users/huan1428/Documents/esci5331_hydro_modeling/assignment_5/model_runs/2d_flow_recharge/test.oc
 FILE TYPE:OC   UNIT   22   STATUS:OLD    
 FORMAT:FORMATTED              ACCESS:SEQUENTIAL          

 OPENING C:/Users/huan1428/Documents/esci5331_hydro_modeling/assignment_5/model_runs/2d_flow_recharge/test_1D.dis
 FILE TYPE:DIS   UNIT   10   STATUS:OLD    
 FORMAT:FORMATTED              ACCESS:SEQUENTIAL          

 OPENING C:/Users/huan1428/Documents/esci5331_hydro_modeling/assignment_5/model_runs/2d_flow_recharge/test.lmt
 FILE TYPE:LMT6   UNIT   66   STATUS:OLD    
 FORMAT:FORMATTED              ACCESS:SEQUENTIAL          

 OPENING C:/Users/huan1428/Documents/esci5331_hydro_modeling/assignment_5/model_runs/2d_flow_recharge/test.bud
 FILE TYPE:DATA(BINARY)   UNIT   34   STATUS:UNKNOWN
 FORMAT:BINARY                 ACCESS:SEQUENTIAL          

 OPENING C:/Users/huan1428/Documents/esci5331_hydro_modeling/assignment_5/model_runs/2d_flow_recharge/testhead.dat
 FILE TYPE:DATA(BINARY)   UNIT   51   STATUS:UNKNOWN
 FORMAT:BINARY                 ACCESS:SEQUENTIAL          

 OPENING C:/Users/huan1428/Documents/esci5331_hydro_modeling/assignment_5/model_runs/2d_flow_recharge/ibound.dat
 FILE TYPE:DATA   UNIT   52   STATUS:UNKNOWN
 FORMAT:FORMATTED              ACCESS:SEQUENTIAL          

 BAS -- BASIC PACKAGE, VERSION 7, 5/2/2005 INPUT READ FROM UNIT    8
 
 MODFLOW was compiled using mixed precision
 Precision of REAL variables:           6
 Precision of DOUBLE PRECISION variables:          15

 DISCRETIZATION INPUT DATA READ FROM UNIT   10
   50 LAYERS         1 ROWS       100 COLUMNS
    1 STRESS PERIOD(S) IN SIMULATION
 MODEL TIME UNIT IS DAYS
 MODEL LENGTH UNIT IS METERS
  Confining bed flag for each layer:
   0   0   0   0   0   0   0   0   0   0   0   0   0   0   0   0   0   0   0   0
   0   0   0   0   0   0   0   0   0   0   0   0   0   0   0   0   0   0   0   0
   0   0   0   0   0   0   0   0   0   0

                     DELR =   1.00000    

                     DELC =   1.00000    

 TOP ELEVATION OF LAYER 1 =   0.00000    

   MODEL LAYER BOTTOM EL. = -2.000000E-02 FOR LAYER   1

   MODEL LAYER BOTTOM EL. = -4.000000E-02 FOR LAYER   2

   MODEL LAYER BOTTOM EL. = -6.000000E-02 FOR LAYER   3

   MODEL LAYER BOTTOM EL. = -8.000000E-02 FOR LAYER   4

   MODEL LAYER BOTTOM EL. = -0.100000     FOR LAYER   5

   MODEL LAYER BOTTOM EL. = -0.120000     FOR LAYER   6

   MODEL LAYER BOTTOM EL. = -0.140000     FOR LAYER   7

   MODEL LAYER BOTTOM EL. = -0.160000     FOR LAYER   8

   MODEL LAYER BOTTOM EL. = -0.180000     FOR LAYER   9

   MODEL LAYER BOTTOM EL. = -0.200000     FOR LAYER  10

   MODEL LAYER BOTTOM EL. = -0.220000     FOR LAYER  11

   MODEL LAYER BOTTOM EL. = -0.240000     FOR LAYER  12

   MODEL LAYER BOTTOM EL. = -0.260000     FOR LAYER  13

   MODEL LAYER BOTTOM EL. = -0.280000     FOR LAYER  14

   MODEL LAYER BOTTOM EL. = -0.300000     FOR LAYER  15

   MODEL LAYER BOTTOM EL. = -0.320000     FOR LAYER  16

   MODEL LAYER BOTTOM EL. = -0.340000     FOR LAYER  17

   MODEL LAYER BOTTOM EL. = -0.360000     FOR LAYER  18

   MODEL LAYER BOTTOM EL. = -0.380000     FOR LAYER  19

   MODEL LAYER BOTTOM EL. = -0.400000     FOR LAYER  20

   MODEL LAYER BOTTOM EL. = -0.420000     FOR LAYER  21

   MODEL LAYER BOTTOM EL. = -0.440000     FOR LAYER  22

   MODEL LAYER BOTTOM EL. = -0.460000     FOR LAYER  23

   MODEL LAYER BOTTOM EL. = -0.480000     FOR LAYER  24

   MODEL LAYER BOTTOM EL. = -0.500000     FOR LAYER  25

   MODEL LAYER BOTTOM EL. = -0.520000     FOR LAYER  26

   MODEL LAYER BOTTOM EL. = -0.540000     FOR LAYER  27

   MODEL LAYER BOTTOM EL. = -0.560000     FOR LAYER  28

   MODEL LAYER BOTTOM EL. = -0.580000     FOR LAYER  29

   MODEL LAYER BOTTOM EL. = -0.600000     FOR LAYER  30

   MODEL LAYER BOTTOM EL. = -0.620000     FOR LAYER  31

   MODEL LAYER BOTTOM EL. = -0.640000     FOR LAYER  32

   MODEL LAYER BOTTOM EL. = -0.660000     FOR LAYER  33

   MODEL LAYER BOTTOM EL. = -0.680000     FOR LAYER  34

   MODEL LAYER BOTTOM EL. = -0.700000     FOR LAYER  35

   MODEL LAYER BOTTOM EL. = -0.720000     FOR LAYER  36

   MODEL LAYER BOTTOM EL. = -0.740000     FOR LAYER  37

   MODEL LAYER BOTTOM EL. = -0.760000     FOR LAYER  38

   MODEL LAYER BOTTOM EL. = -0.780000     FOR LAYER  39

   MODEL LAYER BOTTOM EL. = -0.800000     FOR LAYER  40

   MODEL LAYER BOTTOM EL. = -0.820000     FOR LAYER  41

   MODEL LAYER BOTTOM EL. = -0.840000     FOR LAYER  42

   MODEL LAYER BOTTOM EL. = -0.860000     FOR LAYER  43

   MODEL LAYER BOTTOM EL. = -0.880000     FOR LAYER  44

   MODEL LAYER BOTTOM EL. = -0.900000     FOR LAYER  45

   MODEL LAYER BOTTOM EL. = -0.920000     FOR LAYER  46

   MODEL LAYER BOTTOM EL. = -0.940000     FOR LAYER  47

   MODEL LAYER BOTTOM EL. = -0.960000     FOR LAYER  48

   MODEL LAYER BOTTOM EL. = -0.980000     FOR LAYER  49

   MODEL LAYER BOTTOM EL. =  -1.00000     FOR LAYER  50


 STRESS PERIOD     LENGTH       TIME STEPS     MULTIPLIER FOR DELT    SS FLAG
 ----------------------------------------------------------------------------
        1         1.000000          1                    1.000         SS

 STEADY-STATE SIMULATION



 
 # basic package file --- x-section 50 layers, 100 column                        
 CROSS SECTION OPTION IS SPECIFIED



                     BOUNDARY ARRAY FOR CROSS SECTION
 READING ON UNIT    8 WITH FORMAT: (FREE)              

        1   2   3   4   5   6   7   8   9  10  11  12  13  14  15  16  17  18  19  20  21  22  23  24  25  26  27  28  29  30
       31  32  33  34  35  36  37  38  39  40  41  42  43  44  45  46  47  48  49  50  51  52  53  54  55  56  57  58  59  60
       61  62  63  64  65  66  67  68  69  70  71  72  73  74  75  76  77  78  79  80  81  82  83  84  85  86  87  88  89  90
       91  92  93  94  95  96  97  98  99 100
 ............................................................................................................................
   1    1   1   1   1   1   1   1   1   1   1   1   1   1   1   1   1   1   1   1   1   1   1   1   1   1   1   1   1   1   1
        1   1   1   1   1   1   1   1   1   1   1   1   1   1   1   1   1   1   1   1   1   1   1   1   1   1   1   1   1   1
        1   1   1   1   1   1   1   1   1   1   1   1   1   1   1   1   1   1   1   1   1   1   1   1   1   1   1   1   1   1
        1   1   1   1   1   1   1   1   1   1
   2   -1   1   1   1   1   1   1   1   1   1   1   1   1   1   1   1   1   1   1   1   1   1   1   1   1   1   1   1   1   1
        1   1   1   1   1   1   1   1   1   1   1   1   1   1   1   1   1   1   1   1   1   1   1   1   1   1   1   1   1   1
        1   1   1   1   1   1   1   1   1   1   1   1   1   1   1   1   1   1   1   1   1   1   1   1   1   1   1   1   1   1
        1   1   1   1   1   1   1   1   1  -1
   3   -1   1   1   1   1   1   1   1   1   1   1   1   1   1   1   1   1   1   1   1   1   1   1   1   1   1   1   1   1   1
        1   1   1   1   1   1   1   1   1   1   1   1   1   1   1   1   1   1   1   1   1   1   1   1   1   1   1   1   1   1
        1   1   1   1   1   1   1   1   1   1   1   1   1   1   1   1   1   1   1   1   1   1   1   1   1   1   1   1   1   1
        1   1   1   1   1   1   1   1   1  -1
   4   -1   1   1   1   1   1   1   1   1   1   1   1   1   1   1   1   1   1   1   1   1   1   1   1   1   1   1   1   1   1
        1   1   1   1   1   1   1   1   1   1   1   1   1   1   1   1   1   1   1   1   1   1   1   1   1   1   1   1   1   1
        1   1   1   1   1   1   1   1   1   1   1   1   1   1   1   1   1   1   1   1   1   1   1   1   1   1   1   1   1   1
        1   1   1   1   1   1   1   1   1  -1
   5   -1   1   1   1   1   1   1   1   1   1   1   1   1   1   1   1   1   1   1   1   1   1   1   1   1   1   1   1   1   1
        1   1   1   1   1   1   1   1   1   1   1   1   1   1   1   1   1   1   1   1   1   1   1   1   1   1   1   1   1   1
        1   1   1   1   1   1   1   1   1   1   1   1   1   1   1   1   1   1   1   1   1   1   1   1   1   1   1   1   1   1
        1   1   1   1   1   1   1   1   1  -1
   6   -1   1   1   1   1   1   1   1   1   1   1   1   1   1   1   1   1   1   1   1   1   1   1   1   1   1   1   1   1   1
        1   1   1   1   1   1   1   1   1   1   1   1   1   1   1   1   1   1   1   1   1   1   1   1   1   1   1   1   1   1
        1   1   1   1   1   1   1   1   1   1   1   1   1   1   1   1   1   1   1   1   1   1   1   1   1   1   1   1   1   1
        1   1   1   1   1   1   1   1   1  -1
   7   -1   1   1   1   1   1   1   1   1   1   1   1   1   1   1   1   1   1   1   1   1   1   1   1   1   1   1   1   1   1
        1   1   1   1   1   1   1   1   1   1   1   1   1   1   1   1   1   1   1   1   1   1   1   1   1   1   1   1   1   1
        1   1   1   1   1   1   1   1   1   1   1   1   1   1   1   1   1   1   1   1   1   1   1   1   1   1   1   1   1   1
        1   1   1   1   1   1   1   1   1  -1
   8   -1   1   1   1   1   1   1   1   1   1   1   1   1   1   1   1   1   1   1   1   1   1   1   1   1   1   1   1   1   1
        1   1   1   1   1   1   1   1   1   1   1   1   1   1   1   1   1   1   1   1   1   1   1   1   1   1   1   1   1   1
        1   1   1   1   1   1   1   1   1   1   1   1   1   1   1   1   1   1   1   1   1   1   1   1   1   1   1   1   1   1
        1   1   1   1   1   1   1   1   1  -1
   9   -1   1   1   1   1   1   1   1   1   1   1   1   1   1   1   1   1   1   1   1   1   1   1   1   1   1   1   1   1   1
        1   1   1   1   1   1   1   1   1   1   1   1   1   1   1   1   1   1   1   1   1   1   1   1   1   1   1   1   1   1
        1   1   1   1   1   1   1   1   1   1   1   1   1   1   1   1   1   1   1   1   1   1   1   1   1   1   1   1   1   1
        1   1   1   1   1   1   1   1   1  -1
  10   -1   1   1   1   1   1   1   1   1   1   1   1   1   1   1   1   1   1   1   1   1   1   1   1   1   1   1   1   1   1
        1   1   1   1   1   1   1   1   1   1   1   1   1   1   1   1   1   1   1   1   1   1   1   1   1   1   1   1   1   1
        1   1   1   1   1   1   1   1   1   1   1   1   1   1   1   1   1   1   1   1   1   1   1   1   1   1   1   1   1   1
        1   1   1   1   1   1   1   1   1  -1
  11   -1   1   1   1   1   1   1   1   1   1   1   1   1   1   1   1   1   1   1   1   1   1   1   1   1   1   1   1   1   1
        1   1   1   1   1   1   1   1   1   1   1   1   1   1   1   1   1   1   1   1   1   1   1   1   1   1   1   1   1   1
        1   1   1   1   1   1   1   1   1   1   1   1   1   1   1   1   1   1   1   1   1   1   1   1   1   1   1   1   1   1
        1   1   1   1   1   1   1   1   1  -1
  12   -1   1   1   1   1   1   1   1   1   1   1   1   1   1   1   1   1   1   1   1   1   1   1   1   1   1   1   1   1   1
        1   1   1   1   1   1   1   1   1   1   1   1   1   1   1   1   1   1   1   1   1   1   1   1   1   1   1   1   1   1
        1   1   1   1   1   1   1   1   1   1   1   1   1   1   1   1   1   1   1   1   1   1   1   1   1   1   1   1   1   1
        1   1   1   1   1   1   1   1   1  -1
  13   -1   1   1   1   1   1   1   1   1   1   1   1   1   1   1   1   1   1   1   1   1   1   1   1   1   1   1   1   1   1
        1   1   1   1   1   1   1   1   1   1   1   1   1   1   1   1   1   1   1   1   1   1   1   1   1   1   1   1   1   1
        1   1   1   1   1   1   1   1   1   1   1   1   1   1   1   1   1   1   1   1   1   1   1   1   1   1   1   1   1   1
        1   1   1   1   1   1   1   1   1  -1
  14   -1   1   1   1   1   1   1   1   1   1   1   1   1   1   1   1   1   1   1   1   1   1   1   1   1   1   1   1   1   1
        1   1   1   1   1   1   1   1   1   1   1   1   1   1   1   1   1   1   1   1   1   1   1   1   1   1   1   1   1   1
        1   1   1   1   1   1   1   1   1   1   1   1   1   1   1   1   1   1   1   1   1   1   1   1   1   1   1   1   1   1
        1   1   1   1   1   1   1   1   1  -1
  15   -1   1   1   1   1   1   1   1   1   1   1   1   1   1   1   1   1   1   1   1   1   1   1   1   1   1   1   1   1   1
        1   1   1   1   1   1   1   1   1   1   1   1   1   1   1   1   1   1   1   1   1   1   1   1   1   1   1   1   1   1
        1   1   1   1   1   1   1   1   1   1   1   1   1   1   1   1   1   1   1   1   1   1   1   1   1   1   1   1   1   1
        1   1   1   1   1   1   1   1   1  -1
  16   -1   1   1   1   1   1   1   1   1   1   1   1   1   1   1   1   1   1   1   1   1   1   1   1   1   1   1   1   1   1
        1   1   1   1   1   1   1   1   1   1   1   1   1   1   1   1   1   1   1   1   1   1   1   1   1   1   1   1   1   1
        1   1   1   1   1   1   1   1   1   1   1   1   1   1   1   1   1   1   1   1   1   1   1   1   1   1   1   1   1   1
        1   1   1   1   1   1   1   1   1  -1
  17   -1   1   1   1   1   1   1   1   1   1   1   1   1   1   1   1   1   1   1   1   1   1   1   1   1   1   1   1   1   1
        1   1   1   1   1   1   1   1   1   1   1   1   1   1   1   1   1   1   1   1   1   1   1   1   1   1   1   1   1   1
        1   1   1   1   1   1   1   1   1   1   1   1   1   1   1   1   1   1   1   1   1   1   1   1   1   1   1   1   1   1
        1   1   1   1   1   1   1   1   1  -1
  18   -1   1   1   1   1   1   1   1   1   1   1   1   1   1   1   1   1   1   1   1   1   1   1   1   1   1   1   1   1   1
        1   1   1   1   1   1   1   1   1   1   1   1   1   1   1   1   1   1   1   1   1   1   1   1   1   1   1   1   1   1
        1   1   1   1   1   1   1   1   1   1   1   1   1   1   1   1   1   1   1   1   1   1   1   1   1   1   1   1   1   1
        1   1   1   1   1   1   1   1   1  -1
  19   -1   1   1   1   1   1   1   1   1   1   1   1   1   1   1   1   1   1   1   1   1   1   1   1   1   1   1   1   1   1
        1   1   1   1   1   1   1   1   1   1   1   1   1   1   1   1   1   1   1   1   1   1   1   1   1   1   1   1   1   1
        1   1   1   1   1   1   1   1   1   1   1   1   1   1   1   1   1   1   1   1   1   1   1   1   1   1   1   1   1   1
        1   1   1   1   1   1   1   1   1  -1
  20   -1   1   1   1   1   1   1   1   1   1   1   1   1   1   1   1   1   1   1   1   1   1   1   1   1   1   1   1   1   1
        1   1   1   1   1   1   1   1   1   1   1   1   1   1   1   1   1   1   1   1   1   1   1   1   1   1   1   1   1   1
        1   1   1   1   1   1   1   1   1   1   1   1   1   1   1   1   1   1   1   1   1   1   1   1   1   1   1   1   1   1
        1   1   1   1   1   1   1   1   1  -1
  21   -1   1   1   1   1   1   1   1   1   1   1   1   1   1   1   1   1   1   1   1   1   1   1   1   1   1   1   1   1   1
        1   1   1   1   1   1   1   1   1   1   1   1   1   1   1   1   1   1   1   1   1   1   1   1   1   1   1   1   1   1
        1   1   1   1   1   1   1   1   1   1   1   1   1   1   1   1   1   1   1   1   1   1   1   1   1   1   1   1   1   1
        1   1   1   1   1   1   1   1   1  -1
  22   -1   1   1   1   1   1   1   1   1   1   1   1   1   1   1   1   1   1   1   1   1   1   1   1   1   1   1   1   1   1
        1   1   1   1   1   1   1   1   1   1   1   1   1   1   1   1   1   1   1   1   1   1   1   1   1   1   1   1   1   1
        1   1   1   1   1   1   1   1   1   1   1   1   1   1   1   1   1   1   1   1   1   1   1   1   1   1   1   1   1   1
        1   1   1   1   1   1   1   1   1  -1
  23   -1   1   1   1   1   1   1   1   1   1   1   1   1   1   1   1   1   1   1   1   1   1   1   1   1   1   1   1   1   1
        1   1   1   1   1   1   1   1   1   1   1   1   1   1   1   1   1   1   1   1   1   1   1   1   1   1   1   1   1   1
        1   1   1   1   1   1   1   1   1   1   1   1   1   1   1   1   1   1   1   1   1   1   1   1   1   1   1   1   1   1
        1   1   1   1   1   1   1   1   1  -1
  24   -1   1   1   1   1   1   1   1   1   1   1   1   1   1   1   1   1   1   1   1   1   1   1   1   1   1   1   1   1   1
        1   1   1   1   1   1   1   1   1   1   1   1   1   1   1   1   1   1   1   1   1   1   1   1   1   1   1   1   1   1
        1   1   1   1   1   1   1   1   1   1   1   1   1   1   1   1   1   1   1   1   1   1   1   1   1   1   1   1   1   1
        1   1   1   1   1   1   1   1   1  -1
  25   -1   1   1   1   1   1   1   1   1   1   1   1   1   1   1   1   1   1   1   1   1   1   1   1   1   1   1   1   1   1
        1   1   1   1   1   1   1   1   1   1   1   1   1   1   1   1   1   1   1   1   1   1   1   1   1   1   1   1   1   1
        1   1   1   1   1   1   1   1   1   1   1   1   1   1   1   1   1   1   1   1   1   1   1   1   1   1   1   1   1   1
        1   1   1   1   1   1   1   1   1  -1
  26   -1   1   1   1   1   1   1   1   1   1   1   1   1   1   1   1   1   1   1   1   1   1   1   1   1   1   1   1   1   1
        1   1   1   1   1   1   1   1   1   1   1   1   1   1   1   1   1   1   1   1   1   1   1   1   1   1   1   1   1   1
        1   1   1   1   1   1   1   1   1   1   1   1   1   1   1   1   1   1   1   1   1   1   1   1   1   1   1   1   1   1
        1   1   1   1   1   1   1   1   1  -1
  27   -1   1   1   1   1   1   1   1   1   1   1   1   1   1   1   1   1   1   1   1   1   1   1   1   1   1   1   1   1   1
        1   1   1   1   1   1   1   1   1   1   1   1   1   1   1   1   1   1   1   1   1   1   1   1   1   1   1   1   1   1
        1   1   1   1   1   1   1   1   1   1   1   1   1   1   1   1   1   1   1   1   1   1   1   1   1   1   1   1   1   1
        1   1   1   1   1   1   1   1   1  -1
  28   -1   1   1   1   1   1   1   1   1   1   1   1   1   1   1   1   1   1   1   1   1   1   1   1   1   1   1   1   1   1
        1   1   1   1   1   1   1   1   1   1   1   1   1   1   1   1   1   1   1   1   1   1   1   1   1   1   1   1   1   1
        1   1   1   1   1   1   1   1   1   1   1   1   1   1   1   1   1   1   1   1   1   1   1   1   1   1   1   1   1   1
        1   1   1   1   1   1   1   1   1  -1
  29   -1   1   1   1   1   1   1   1   1   1   1   1   1   1   1   1   1   1   1   1   1   1   1   1   1   1   1   1   1   1
        1   1   1   1   1   1   1   1   1   1   1   1   1   1   1   1   1   1   1   1   1   1   1   1   1   1   1   1   1   1
        1   1   1   1   1   1   1   1   1   1   1   1   1   1   1   1   1   1   1   1   1   1   1   1   1   1   1   1   1   1
        1   1   1   1   1   1   1   1   1  -1
  30   -1   1   1   1   1   1   1   1   1   1   1   1   1   1   1   1   1   1   1   1   1   1   1   1   1   1   1   1   1   1
        1   1   1   1   1   1   1   1   1   1   1   1   1   1   1   1   1   1   1   1   1   1   1   1   1   1   1   1   1   1
        1   1   1   1   1   1   1   1   1   1   1   1   1   1   1   1   1   1   1   1   1   1   1   1   1   1   1   1   1   1
        1   1   1   1   1   1   1   1   1  -1
  31   -1   1   1   1   1   1   1   1   1   1   1   1   1   1   1   1   1   1   1   1   1   1   1   1   1   1   1   1   1   1
        1   1   1   1   1   1   1   1   1   1   1   1   1   1   1   1   1   1   1   1   1   1   1   1   1   1   1   1   1   1
        1   1   1   1   1   1   1   1   1   1   1   1   1   1   1   1   1   1   1   1   1   1   1   1   1   1   1   1   1   1
        1   1   1   1   1   1   1   1   1  -1
  32   -1   1   1   1   1   1   1   1   1   1   1   1   1   1   1   1   1   1   1   1   1   1   1   1   1   1   1   1   1   1
        1   1   1   1   1   1   1   1   1   1   1   1   1   1   1   1   1   1   1   1   1   1   1   1   1   1   1   1   1   1
        1   1   1   1   1   1   1   1   1   1   1   1   1   1   1   1   1   1   1   1   1   1   1   1   1   1   1   1   1   1
        1   1   1   1   1   1   1   1   1  -1
  33   -1   1   1   1   1   1   1   1   1   1   1   1   1   1   1   1   1   1   1   1   1   1   1   1   1   1   1   1   1   1
        1   1   1   1   1   1   1   1   1   1   1   1   1   1   1   1   1   1   1   1   1   1   1   1   1   1   1   1   1   1
        1   1   1   1   1   1   1   1   1   1   1   1   1   1   1   1   1   1   1   1   1   1   1   1   1   1   1   1   1   1
        1   1   1   1   1   1   1   1   1  -1
  34   -1   1   1   1   1   1   1   1   1   1   1   1   1   1   1   1   1   1   1   1   1   1   1   1   1   1   1   1   1   1
        1   1   1   1   1   1   1   1   1   1   1   1   1   1   1   1   1   1   1   1   1   1   1   1   1   1   1   1   1   1
        1   1   1   1   1   1   1   1   1   1   1   1   1   1   1   1   1   1   1   1   1   1   1   1   1   1   1   1   1   1
        1   1   1   1   1   1   1   1   1  -1
  35   -1   1   1   1   1   1   1   1   1   1   1   1   1   1   1   1   1   1   1   1   1   1   1   1   1   1   1   1   1   1
        1   1   1   1   1   1   1   1   1   1   1   1   1   1   1   1   1   1   1   1   1   1   1   1   1   1   1   1   1   1
        1   1   1   1   1   1   1   1   1   1   1   1   1   1   1   1   1   1   1   1   1   1   1   1   1   1   1   1   1   1
        1   1   1   1   1   1   1   1   1  -1
  36   -1   1   1   1   1   1   1   1   1   1   1   1   1   1   1   1   1   1   1   1   1   1   1   1   1   1   1   1   1   1
        1   1   1   1   1   1   1   1   1   1   1   1   1   1   1   1   1   1   1   1   1   1   1   1   1   1   1   1   1   1
        1   1   1   1   1   1   1   1   1   1   1   1   1   1   1   1   1   1   1   1   1   1   1   1   1   1   1   1   1   1
        1   1   1   1   1   1   1   1   1  -1
  37   -1   1   1   1   1   1   1   1   1   1   1   1   1   1   1   1   1   1   1   1   1   1   1   1   1   1   1   1   1   1
        1   1   1   1   1   1   1   1   1   1   1   1   1   1   1   1   1   1   1   1   1   1   1   1   1   1   1   1   1   1
        1   1   1   1   1   1   1   1   1   1   1   1   1   1   1   1   1   1   1   1   1   1   1   1   1   1   1   1   1   1
        1   1   1   1   1   1   1   1   1  -1
  38   -1   1   1   1   1   1   1   1   1   1   1   1   1   1   1   1   1   1   1   1   1   1   1   1   1   1   1   1   1   1
        1   1   1   1   1   1   1   1   1   1   1   1   1   1   1   1   1   1   1   1   1   1   1   1   1   1   1   1   1   1
        1   1   1   1   1   1   1   1   1   1   1   1   1   1   1   1   1   1   1   1   1   1   1   1   1   1   1   1   1   1
        1   1   1   1   1   1   1   1   1  -1
  39   -1   1   1   1   1   1   1   1   1   1   1   1   1   1   1   1   1   1   1   1   1   1   1   1   1   1   1   1   1   1
        1   1   1   1   1   1   1   1   1   1   1   1   1   1   1   1   1   1   1   1   1   1   1   1   1   1   1   1   1   1
        1   1   1   1   1   1   1   1   1   1   1   1   1   1   1   1   1   1   1   1   1   1   1   1   1   1   1   1   1   1
        1   1   1   1   1   1   1   1   1  -1
  40   -1   1   1   1   1   1   1   1   1   1   1   1   1   1   1   1   1   1   1   1   1   1   1   1   1   1   1   1   1   1
        1   1   1   1   1   1   1   1   1   1   1   1   1   1   1   1   1   1   1   1   1   1   1   1   1   1   1   1   1   1
        1   1   1   1   1   1   1   1   1   1   1   1   1   1   1   1   1   1   1   1   1   1   1   1   1   1   1   1   1   1
        1   1   1   1   1   1   1   1   1  -1
  41   -1   1   1   1   1   1   1   1   1   1   1   1   1   1   1   1   1   1   1   1   1   1   1   1   1   1   1   1   1   1
        1   1   1   1   1   1   1   1   1   1   1   1   1   1   1   1   1   1   1   1   1   1   1   1   1   1   1   1   1   1
        1   1   1   1   1   1   1   1   1   1   1   1   1   1   1   1   1   1   1   1   1   1   1   1   1   1   1   1   1   1
        1   1   1   1   1   1   1   1   1  -1
  42   -1   1   1   1   1   1   1   1   1   1   1   1   1   1   1   1   1   1   1   1   1   1   1   1   1   1   1   1   1   1
        1   1   1   1   1   1   1   1   1   1   1   1   1   1   1   1   1   1   1   1   1   1   1   1   1   1   1   1   1   1
        1   1   1   1   1   1   1   1   1   1   1   1   1   1   1   1   1   1   1   1   1   1   1   1   1   1   1   1   1   1
        1   1   1   1   1   1   1   1   1  -1
  43   -1   1   1   1   1   1   1   1   1   1   1   1   1   1   1   1   1   1   1   1   1   1   1   1   1   1   1   1   1   1
        1   1   1   1   1   1   1   1   1   1   1   1   1   1   1   1   1   1   1   1   1   1   1   1   1   1   1   1   1   1
        1   1   1   1   1   1   1   1   1   1   1   1   1   1   1   1   1   1   1   1   1   1   1   1   1   1   1   1   1   1
        1   1   1   1   1   1   1   1   1  -1
  44   -1   1   1   1   1   1   1   1   1   1   1   1   1   1   1   1   1   1   1   1   1   1   1   1   1   1   1   1   1   1
        1   1   1   1   1   1   1   1   1   1   1   1   1   1   1   1   1   1   1   1   1   1   1   1   1   1   1   1   1   1
        1   1   1   1   1   1   1   1   1   1   1   1   1   1   1   1   1   1   1   1   1   1   1   1   1   1   1   1   1   1
        1   1   1   1   1   1   1   1   1  -1
  45   -1   1   1   1   1   1   1   1   1   1   1   1   1   1   1   1   1   1   1   1   1   1   1   1   1   1   1   1   1   1
        1   1   1   1   1   1   1   1   1   1   1   1   1   1   1   1   1   1   1   1   1   1   1   1   1   1   1   1   1   1
        1   1   1   1   1   1   1   1   1   1   1   1   1   1   1   1   1   1   1   1   1   1   1   1   1   1   1   1   1   1
        1   1   1   1   1   1   1   1   1  -1
  46   -1   1   1   1   1   1   1   1   1   1   1   1   1   1   1   1   1   1   1   1   1   1   1   1   1   1   1   1   1   1
        1   1   1   1   1   1   1   1   1   1   1   1   1   1   1   1   1   1   1   1   1   1   1   1   1   1   1   1   1   1
        1   1   1   1   1   1   1   1   1   1   1   1   1   1   1   1   1   1   1   1   1   1   1   1   1   1   1   1   1   1
        1   1   1   1   1   1   1   1   1  -1
  47   -1   1   1   1   1   1   1   1   1   1   1   1   1   1   1   1   1   1   1   1   1   1   1   1   1   1   1   1   1   1
        1   1   1   1   1   1   1   1   1   1   1   1   1   1   1   1   1   1   1   1   1   1   1   1   1   1   1   1   1   1
        1   1   1   1   1   1   1   1   1   1   1   1   1   1   1   1   1   1   1   1   1   1   1   1   1   1   1   1   1   1
        1   1   1   1   1   1   1   1   1  -1
  48   -1   1   1   1   1   1   1   1   1   1   1   1   1   1   1   1   1   1   1   1   1   1   1   1   1   1   1   1   1   1
        1   1   1   1   1   1   1   1   1   1   1   1   1   1   1   1   1   1   1   1   1   1   1   1   1   1   1   1   1   1
        1   1   1   1   1   1   1   1   1   1   1   1   1   1   1   1   1   1   1   1   1   1   1   1   1   1   1   1   1   1
        1   1   1   1   1   1   1   1   1  -1
  49   -1   1   1   1   1   1   1   1   1   1   1   1   1   1   1   1   1   1   1   1   1   1   1   1   1   1   1   1   1   1
        1   1   1   1   1   1   1   1   1   1   1   1   1   1   1   1   1   1   1   1   1   1   1   1   1   1   1   1   1   1
        1   1   1   1   1   1   1   1   1   1   1   1   1   1   1   1   1   1   1   1   1   1   1   1   1   1   1   1   1   1
        1   1   1   1   1   1   1   1   1  -1
  50    0   1   1   1   1   1   1   1   1   1   1   1   1   1   1   1   1   1   1   1   1   1   1   1   1   1   1   1   1   1
        1   1   1   1   1   1   1   1   1   1   1   1   1   1   1   1   1   1   1   1   1   1   1   1   1   1   1   1   1   1
        1   1   1   1   1   1   1   1   1   1   1   1   1   1   1   1   1   1   1   1   1   1   1   1   1   1   1   1   1   1
        1   1   1   1   1   1   1   1   1  -1

 AQUIFER HEAD WILL BE SET TO   999.99     AT ALL NO-FLOW NODES (IBOUND=0).



                       INITIAL HEAD FOR CROSS SECTION
 READING ON UNIT    8 WITH FORMAT: (FREE)              

           1       2       3       4       5       6       7       8       9      10      11      12      13      14      15
          16      17      18      19      20      21      22      23      24      25      26      27      28      29      30
          31      32      33      34      35      36      37      38      39      40      41      42      43      44      45
          46      47      48      49      50      51      52      53      54      55      56      57      58      59      60
          61      62      63      64      65      66      67      68      69      70      71      72      73      74      75
          76      77      78      79      80      81      82      83      84      85      86      87      88      89      90
          91      92      93      94      95      96      97      98      99     100
 ...........................................................................................................................
   1      1.5     1.5     1.5     1.5     1.5     1.5     1.5     1.5     1.5     1.5     1.5     1.5     1.5     1.4     1.4
          1.4     1.4     1.4     1.4     1.4     1.4     1.4     1.4     1.4     1.4     1.4     1.4     1.4     1.4     1.4
          1.4     1.4     1.4     1.4     1.4     1.4     1.4     1.4     1.3     1.3     1.3     1.3     1.3     1.3     1.3
          1.3     1.3     1.3     1.3     1.3     1.3     1.3     1.3     1.3     1.3     1.3     1.3     1.3     1.3     1.3
          1.3     1.3     1.3     1.2     1.2     1.2     1.2     1.2     1.2     1.2     1.2     1.2     1.2     1.2     1.2
          1.2     1.2     1.2     1.2     1.2     1.2     1.2     1.2     1.2     1.2     1.2     1.2     1.2     1.1     1.1
          1.1     1.1     1.1     1.1     1.1     1.1     1.1     1.1     1.1     1.1
   2      1.5     1.5     1.5     1.5     1.5     1.5     1.5     1.5     1.5     1.5     1.5     1.5     1.5     1.4     1.4
          1.4     1.4     1.4     1.4     1.4     1.4     1.4     1.4     1.4     1.4     1.4     1.4     1.4     1.4     1.4
          1.4     1.4     1.4     1.4     1.4     1.4     1.4     1.4     1.3     1.3     1.3     1.3     1.3     1.3     1.3
          1.3     1.3     1.3     1.3     1.3     1.3     1.3     1.3     1.3     1.3     1.3     1.3     1.3     1.3     1.3
          1.3     1.3     1.3     1.2     1.2     1.2     1.2     1.2     1.2     1.2     1.2     1.2     1.2     1.2     1.2
          1.2     1.2     1.2     1.2     1.2     1.2     1.2     1.2     1.2     1.2     1.2     1.2     1.2     1.1     1.1
          1.1     1.1     1.1     1.1     1.1     1.1     1.1     1.1     1.1     1.1
   3      1.5     1.5     1.5     1.5     1.5     1.5     1.5     1.5     1.5     1.5     1.5     1.5     1.5     1.4     1.4
          1.4     1.4     1.4     1.4     1.4     1.4     1.4     1.4     1.4     1.4     1.4     1.4     1.4     1.4     1.4
          1.4     1.4     1.4     1.4     1.4     1.4     1.4     1.4     1.3     1.3     1.3     1.3     1.3     1.3     1.3
          1.3     1.3     1.3     1.3     1.3     1.3     1.3     1.3     1.3     1.3     1.3     1.3     1.3     1.3     1.3
          1.3     1.3     1.3     1.2     1.2     1.2     1.2     1.2     1.2     1.2     1.2     1.2     1.2     1.2     1.2
          1.2     1.2     1.2     1.2     1.2     1.2     1.2     1.2     1.2     1.2     1.2     1.2     1.2     1.1     1.1
          1.1     1.1     1.1     1.1     1.1     1.1     1.1     1.1     1.1     1.1
   4      1.5     1.5     1.5     1.5     1.5     1.5     1.5     1.5     1.5     1.5     1.5     1.5     1.5     1.4     1.4
          1.4     1.4     1.4     1.4     1.4     1.4     1.4     1.4     1.4     1.4     1.4     1.4     1.4     1.4     1.4
          1.4     1.4     1.4     1.4     1.4     1.4     1.4     1.4     1.3     1.3     1.3     1.3     1.3     1.3     1.3
          1.3     1.3     1.3     1.3     1.3     1.3     1.3     1.3     1.3     1.3     1.3     1.3     1.3     1.3     1.3
          1.3     1.3     1.3     1.2     1.2     1.2     1.2     1.2     1.2     1.2     1.2     1.2     1.2     1.2     1.2
          1.2     1.2     1.2     1.2     1.2     1.2     1.2     1.2     1.2     1.2     1.2     1.2     1.2     1.1     1.1
          1.1     1.1     1.1     1.1     1.1     1.1     1.1     1.1     1.1     1.1
   5      1.5     1.5     1.5     1.5     1.5     1.5     1.5     1.5     1.5     1.5     1.5     1.5     1.5     1.4     1.4
          1.4     1.4     1.4     1.4     1.4     1.4     1.4     1.4     1.4     1.4     1.4     1.4     1.4     1.4     1.4
          1.4     1.4     1.4     1.4     1.4     1.4     1.4     1.4     1.3     1.3     1.3     1.3     1.3     1.3     1.3
          1.3     1.3     1.3     1.3     1.3     1.3     1.3     1.3     1.3     1.3     1.3     1.3     1.3     1.3     1.3
          1.3     1.3     1.3     1.2     1.2     1.2     1.2     1.2     1.2     1.2     1.2     1.2     1.2     1.2     1.2
          1.2     1.2     1.2     1.2     1.2     1.2     1.2     1.2     1.2     1.2     1.2     1.2     1.2     1.1     1.1
          1.1     1.1     1.1     1.1     1.1     1.1     1.1     1.1     1.1     1.1
   6      1.5     1.5     1.5     1.5     1.5     1.5     1.5     1.5     1.5     1.5     1.5     1.5     1.5     1.4     1.4
          1.4     1.4     1.4     1.4     1.4     1.4     1.4     1.4     1.4     1.4     1.4     1.4     1.4     1.4     1.4
          1.4     1.4     1.4     1.4     1.4     1.4     1.4     1.4     1.3     1.3     1.3     1.3     1.3     1.3     1.3
          1.3     1.3     1.3     1.3     1.3     1.3     1.3     1.3     1.3     1.3     1.3     1.3     1.3     1.3     1.3
          1.3     1.3     1.3     1.2     1.2     1.2     1.2     1.2     1.2     1.2     1.2     1.2     1.2     1.2     1.2
          1.2     1.2     1.2     1.2     1.2     1.2     1.2     1.2     1.2     1.2     1.2     1.2     1.2     1.1     1.1
          1.1     1.1     1.1     1.1     1.1     1.1     1.1     1.1     1.1     1.1
   7      1.5     1.5     1.5     1.5     1.5     1.5     1.5     1.5     1.5     1.5     1.5     1.5     1.5     1.4     1.4
          1.4     1.4     1.4     1.4     1.4     1.4     1.4     1.4     1.4     1.4     1.4     1.4     1.4     1.4     1.4
          1.4     1.4     1.4     1.4     1.4     1.4     1.4     1.4     1.3     1.3     1.3     1.3     1.3     1.3     1.3
          1.3     1.3     1.3     1.3     1.3     1.3     1.3     1.3     1.3     1.3     1.3     1.3     1.3     1.3     1.3
          1.3     1.3     1.3     1.2     1.2     1.2     1.2     1.2     1.2     1.2     1.2     1.2     1.2     1.2     1.2
          1.2     1.2     1.2     1.2     1.2     1.2     1.2     1.2     1.2     1.2     1.2     1.2     1.2     1.1     1.1
          1.1     1.1     1.1     1.1     1.1     1.1     1.1     1.1     1.1     1.1
   8      1.5     1.5     1.5     1.5     1.5     1.5     1.5     1.5     1.5     1.5     1.5     1.5     1.5     1.4     1.4
          1.4     1.4     1.4     1.4     1.4     1.4     1.4     1.4     1.4     1.4     1.4     1.4     1.4     1.4     1.4
          1.4     1.4     1.4     1.4     1.4     1.4     1.4     1.4     1.3     1.3     1.3     1.3     1.3     1.3     1.3
          1.3     1.3     1.3     1.3     1.3     1.3     1.3     1.3     1.3     1.3     1.3     1.3     1.3     1.3     1.3
          1.3     1.3     1.3     1.2     1.2     1.2     1.2     1.2     1.2     1.2     1.2     1.2     1.2     1.2     1.2
          1.2     1.2     1.2     1.2     1.2     1.2     1.2     1.2     1.2     1.2     1.2     1.2     1.2     1.1     1.1
          1.1     1.1     1.1     1.1     1.1     1.1     1.1     1.1     1.1     1.1
   9      1.5     1.5     1.5     1.5     1.5     1.5     1.5     1.5     1.5     1.5     1.5     1.5     1.5     1.4     1.4
          1.4     1.4     1.4     1.4     1.4     1.4     1.4     1.4     1.4     1.4     1.4     1.4     1.4     1.4     1.4
          1.4     1.4     1.4     1.4     1.4     1.4     1.4     1.4     1.3     1.3     1.3     1.3     1.3     1.3     1.3
          1.3     1.3     1.3     1.3     1.3     1.3     1.3     1.3     1.3     1.3     1.3     1.3     1.3     1.3     1.3
          1.3     1.3     1.3     1.2     1.2     1.2     1.2     1.2     1.2     1.2     1.2     1.2     1.2     1.2     1.2
          1.2     1.2     1.2     1.2     1.2     1.2     1.2     1.2     1.2     1.2     1.2     1.2     1.2     1.1     1.1
          1.1     1.1     1.1     1.1     1.1     1.1     1.1     1.1     1.1     1.1
  10      1.5     1.5     1.5     1.5     1.5     1.5     1.5     1.5     1.5     1.5     1.5     1.5     1.5     1.4     1.4
          1.4     1.4     1.4     1.4     1.4     1.4     1.4     1.4     1.4     1.4     1.4     1.4     1.4     1.4     1.4
          1.4     1.4     1.4     1.4     1.4     1.4     1.4     1.4     1.3     1.3     1.3     1.3     1.3     1.3     1.3
          1.3     1.3     1.3     1.3     1.3     1.3     1.3     1.3     1.3     1.3     1.3     1.3     1.3     1.3     1.3
          1.3     1.3     1.3     1.2     1.2     1.2     1.2     1.2     1.2     1.2     1.2     1.2     1.2     1.2     1.2
          1.2     1.2     1.2     1.2     1.2     1.2     1.2     1.2     1.2     1.2     1.2     1.2     1.2     1.1     1.1
          1.1     1.1     1.1     1.1     1.1     1.1     1.1     1.1     1.1     1.1
  11      1.5     1.5     1.5     1.5     1.5     1.5     1.5     1.5     1.5     1.5     1.5     1.5     1.5     1.4     1.4
          1.4     1.4     1.4     1.4     1.4     1.4     1.4     1.4     1.4     1.4     1.4     1.4     1.4     1.4     1.4
          1.4     1.4     1.4     1.4     1.4     1.4     1.4     1.4     1.3     1.3     1.3     1.3     1.3     1.3     1.3
          1.3     1.3     1.3     1.3     1.3     1.3     1.3     1.3     1.3     1.3     1.3     1.3     1.3     1.3     1.3
          1.3     1.3     1.3     1.2     1.2     1.2     1.2     1.2     1.2     1.2     1.2     1.2     1.2     1.2     1.2
          1.2     1.2     1.2     1.2     1.2     1.2     1.2     1.2     1.2     1.2     1.2     1.2     1.2     1.1     1.1
          1.1     1.1     1.1     1.1     1.1     1.1     1.1     1.1     1.1     1.1
  12      1.5     1.5     1.5     1.5     1.5     1.5     1.5     1.5     1.5     1.5     1.5     1.5     1.5     1.4     1.4
          1.4     1.4     1.4     1.4     1.4     1.4     1.4     1.4     1.4     1.4     1.4     1.4     1.4     1.4     1.4
          1.4     1.4     1.4     1.4     1.4     1.4     1.4     1.4     1.3     1.3     1.3     1.3     1.3     1.3     1.3
          1.3     1.3     1.3     1.3     1.3     1.3     1.3     1.3     1.3     1.3     1.3     1.3     1.3     1.3     1.3
          1.3     1.3     1.3     1.2     1.2     1.2     1.2     1.2     1.2     1.2     1.2     1.2     1.2     1.2     1.2
          1.2     1.2     1.2     1.2     1.2     1.2     1.2     1.2     1.2     1.2     1.2     1.2     1.2     1.1     1.1
          1.1     1.1     1.1     1.1     1.1     1.1     1.1     1.1     1.1     1.1
  13      1.5     1.5     1.5     1.5     1.5     1.5     1.5     1.5     1.5     1.5     1.5     1.5     1.5     1.4     1.4
          1.4     1.4     1.4     1.4     1.4     1.4     1.4     1.4     1.4     1.4     1.4     1.4     1.4     1.4     1.4
          1.4     1.4     1.4     1.4     1.4     1.4     1.4     1.4     1.3     1.3     1.3     1.3     1.3     1.3     1.3
          1.3     1.3     1.3     1.3     1.3     1.3     1.3     1.3     1.3     1.3     1.3     1.3     1.3     1.3     1.3
          1.3     1.3     1.3     1.2     1.2     1.2     1.2     1.2     1.2     1.2     1.2     1.2     1.2     1.2     1.2
          1.2     1.2     1.2     1.2     1.2     1.2     1.2     1.2     1.2     1.2     1.2     1.2     1.2     1.1     1.1
          1.1     1.1     1.1     1.1     1.1     1.1     1.1     1.1     1.1     1.1
  14      1.5     1.5     1.5     1.5     1.5     1.5     1.5     1.5     1.5     1.5     1.5     1.5     1.5     1.4     1.4
          1.4     1.4     1.4     1.4     1.4     1.4     1.4     1.4     1.4     1.4     1.4     1.4     1.4     1.4     1.4
          1.4     1.4     1.4     1.4     1.4     1.4     1.4     1.4     1.3     1.3     1.3     1.3     1.3     1.3     1.3
          1.3     1.3     1.3     1.3     1.3     1.3     1.3     1.3     1.3     1.3     1.3     1.3     1.3     1.3     1.3
          1.3     1.3     1.3     1.2     1.2     1.2     1.2     1.2     1.2     1.2     1.2     1.2     1.2     1.2     1.2
          1.2     1.2     1.2     1.2     1.2     1.2     1.2     1.2     1.2     1.2     1.2     1.2     1.2     1.1     1.1
          1.1     1.1     1.1     1.1     1.1     1.1     1.1     1.1     1.1     1.1
  15      1.5     1.5     1.5     1.5     1.5     1.5     1.5     1.5     1.5     1.5     1.5     1.5     1.5     1.4     1.4
          1.4     1.4     1.4     1.4     1.4     1.4     1.4     1.4     1.4     1.4     1.4     1.4     1.4     1.4     1.4
          1.4     1.4     1.4     1.4     1.4     1.4     1.4     1.4     1.3     1.3     1.3     1.3     1.3     1.3     1.3
          1.3     1.3     1.3     1.3     1.3     1.3     1.3     1.3     1.3     1.3     1.3     1.3     1.3     1.3     1.3
          1.3     1.3     1.3     1.2     1.2     1.2     1.2     1.2     1.2     1.2     1.2     1.2     1.2     1.2     1.2
          1.2     1.2     1.2     1.2     1.2     1.2     1.2     1.2     1.2     1.2     1.2     1.2     1.2     1.1     1.1
          1.1     1.1     1.1     1.1     1.1     1.1     1.1     1.1     1.1     1.1
  16      1.5     1.5     1.5     1.5     1.5     1.5     1.5     1.5     1.5     1.5     1.5     1.5     1.5     1.4     1.4
          1.4     1.4     1.4     1.4     1.4     1.4     1.4     1.4     1.4     1.4     1.4     1.4     1.4     1.4     1.4
          1.4     1.4     1.4     1.4     1.4     1.4     1.4     1.4     1.3     1.3     1.3     1.3     1.3     1.3     1.3
          1.3     1.3     1.3     1.3     1.3     1.3     1.3     1.3     1.3     1.3     1.3     1.3     1.3     1.3     1.3
          1.3     1.3     1.3     1.2     1.2     1.2     1.2     1.2     1.2     1.2     1.2     1.2     1.2     1.2     1.2
          1.2     1.2     1.2     1.2     1.2     1.2     1.2     1.2     1.2     1.2     1.2     1.2     1.2     1.1     1.1
          1.1     1.1     1.1     1.1     1.1     1.1     1.1     1.1     1.1     1.1
  17      1.5     1.5     1.5     1.5     1.5     1.5     1.5     1.5     1.5     1.5     1.5     1.5     1.5     1.4     1.4
          1.4     1.4     1.4     1.4     1.4     1.4     1.4     1.4     1.4     1.4     1.4     1.4     1.4     1.4     1.4
          1.4     1.4     1.4     1.4     1.4     1.4     1.4     1.4     1.3     1.3     1.3     1.3     1.3     1.3     1.3
          1.3     1.3     1.3     1.3     1.3     1.3     1.3     1.3     1.3     1.3     1.3     1.3     1.3     1.3     1.3
          1.3     1.3     1.3     1.2     1.2     1.2     1.2     1.2     1.2     1.2     1.2     1.2     1.2     1.2     1.2
          1.2     1.2     1.2     1.2     1.2     1.2     1.2     1.2     1.2     1.2     1.2     1.2     1.2     1.1     1.1
          1.1     1.1     1.1     1.1     1.1     1.1     1.1     1.1     1.1     1.1
  18      1.5     1.5     1.5     1.5     1.5     1.5     1.5     1.5     1.5     1.5     1.5     1.5     1.5     1.4     1.4
          1.4     1.4     1.4     1.4     1.4     1.4     1.4     1.4     1.4     1.4     1.4     1.4     1.4     1.4     1.4
          1.4     1.4     1.4     1.4     1.4     1.4     1.4     1.4     1.3     1.3     1.3     1.3     1.3     1.3     1.3
          1.3     1.3     1.3     1.3     1.3     1.3     1.3     1.3     1.3     1.3     1.3     1.3     1.3     1.3     1.3
          1.3     1.3     1.3     1.2     1.2     1.2     1.2     1.2     1.2     1.2     1.2     1.2     1.2     1.2     1.2
          1.2     1.2     1.2     1.2     1.2     1.2     1.2     1.2     1.2     1.2     1.2     1.2     1.2     1.1     1.1
          1.1     1.1     1.1     1.1     1.1     1.1     1.1     1.1     1.1     1.1
  19      1.5     1.5     1.5     1.5     1.5     1.5     1.5     1.5     1.5     1.5     1.5     1.5     1.5     1.4     1.4
          1.4     1.4     1.4     1.4     1.4     1.4     1.4     1.4     1.4     1.4     1.4     1.4     1.4     1.4     1.4
          1.4     1.4     1.4     1.4     1.4     1.4     1.4     1.4     1.3     1.3     1.3     1.3     1.3     1.3     1.3
          1.3     1.3     1.3     1.3     1.3     1.3     1.3     1.3     1.3     1.3     1.3     1.3     1.3     1.3     1.3
          1.3     1.3     1.3     1.2     1.2     1.2     1.2     1.2     1.2     1.2     1.2     1.2     1.2     1.2     1.2
          1.2     1.2     1.2     1.2     1.2     1.2     1.2     1.2     1.2     1.2     1.2     1.2     1.2     1.1     1.1
          1.1     1.1     1.1     1.1     1.1     1.1     1.1     1.1     1.1     1.1
  20      1.5     1.5     1.5     1.5     1.5     1.5     1.5     1.5     1.5     1.5     1.5     1.5     1.5     1.4     1.4
          1.4     1.4     1.4     1.4     1.4     1.4     1.4     1.4     1.4     1.4     1.4     1.4     1.4     1.4     1.4
          1.4     1.4     1.4     1.4     1.4     1.4     1.4     1.4     1.3     1.3     1.3     1.3     1.3     1.3     1.3
          1.3     1.3     1.3     1.3     1.3     1.3     1.3     1.3     1.3     1.3     1.3     1.3     1.3     1.3     1.3
          1.3     1.3     1.3     1.2     1.2     1.2     1.2     1.2     1.2     1.2     1.2     1.2     1.2     1.2     1.2
          1.2     1.2     1.2     1.2     1.2     1.2     1.2     1.2     1.2     1.2     1.2     1.2     1.2     1.1     1.1
          1.1     1.1     1.1     1.1     1.1     1.1     1.1     1.1     1.1     1.1
  21      1.5     1.5     1.5     1.5     1.5     1.5     1.5     1.5     1.5     1.5     1.5     1.5     1.5     1.4     1.4
          1.4     1.4     1.4     1.4     1.4     1.4     1.4     1.4     1.4     1.4     1.4     1.4     1.4     1.4     1.4
          1.4     1.4     1.4     1.4     1.4     1.4     1.4     1.4     1.3     1.3     1.3     1.3     1.3     1.3     1.3
          1.3     1.3     1.3     1.3     1.3     1.3     1.3     1.3     1.3     1.3     1.3     1.3     1.3     1.3     1.3
          1.3     1.3     1.3     1.2     1.2     1.2     1.2     1.2     1.2     1.2     1.2     1.2     1.2     1.2     1.2
          1.2     1.2     1.2     1.2     1.2     1.2     1.2     1.2     1.2     1.2     1.2     1.2     1.2     1.1     1.1
          1.1     1.1     1.1     1.1     1.1     1.1     1.1     1.1     1.1     1.1
  22      1.5     1.5     1.5     1.5     1.5     1.5     1.5     1.5     1.5     1.5     1.5     1.5     1.5     1.4     1.4
          1.4     1.4     1.4     1.4     1.4     1.4     1.4     1.4     1.4     1.4     1.4     1.4     1.4     1.4     1.4
          1.4     1.4     1.4     1.4     1.4     1.4     1.4     1.4     1.3     1.3     1.3     1.3     1.3     1.3     1.3
          1.3     1.3     1.3     1.3     1.3     1.3     1.3     1.3     1.3     1.3     1.3     1.3     1.3     1.3     1.3
          1.3     1.3     1.3     1.2     1.2     1.2     1.2     1.2     1.2     1.2     1.2     1.2     1.2     1.2     1.2
          1.2     1.2     1.2     1.2     1.2     1.2     1.2     1.2     1.2     1.2     1.2     1.2     1.2     1.1     1.1
          1.1     1.1     1.1     1.1     1.1     1.1     1.1     1.1     1.1     1.1
  23      1.5     1.5     1.5     1.5     1.5     1.5     1.5     1.5     1.5     1.5     1.5     1.5     1.5     1.4     1.4
          1.4     1.4     1.4     1.4     1.4     1.4     1.4     1.4     1.4     1.4     1.4     1.4     1.4     1.4     1.4
          1.4     1.4     1.4     1.4     1.4     1.4     1.4     1.4     1.3     1.3     1.3     1.3     1.3     1.3     1.3
          1.3     1.3     1.3     1.3     1.3     1.3     1.3     1.3     1.3     1.3     1.3     1.3     1.3     1.3     1.3
          1.3     1.3     1.3     1.2     1.2     1.2     1.2     1.2     1.2     1.2     1.2     1.2     1.2     1.2     1.2
          1.2     1.2     1.2     1.2     1.2     1.2     1.2     1.2     1.2     1.2     1.2     1.2     1.2     1.1     1.1
          1.1     1.1     1.1     1.1     1.1     1.1     1.1     1.1     1.1     1.1
  24      1.5     1.5     1.5     1.5     1.5     1.5     1.5     1.5     1.5     1.5     1.5     1.5     1.5     1.4     1.4
          1.4     1.4     1.4     1.4     1.4     1.4     1.4     1.4     1.4     1.4     1.4     1.4     1.4     1.4     1.4
          1.4     1.4     1.4     1.4     1.4     1.4     1.4     1.4     1.3     1.3     1.3     1.3     1.3     1.3     1.3
          1.3     1.3     1.3     1.3     1.3     1.3     1.3     1.3     1.3     1.3     1.3     1.3     1.3     1.3     1.3
          1.3     1.3     1.3     1.2     1.2     1.2     1.2     1.2     1.2     1.2     1.2     1.2     1.2     1.2     1.2
          1.2     1.2     1.2     1.2     1.2     1.2     1.2     1.2     1.2     1.2     1.2     1.2     1.2     1.1     1.1
          1.1     1.1     1.1     1.1     1.1     1.1     1.1     1.1     1.1     1.1
  25      1.5     1.5     1.5     1.5     1.5     1.5     1.5     1.5     1.5     1.5     1.5     1.5     1.5     1.4     1.4
          1.4     1.4     1.4     1.4     1.4     1.4     1.4     1.4     1.4     1.4     1.4     1.4     1.4     1.4     1.4
          1.4     1.4     1.4     1.4     1.4     1.4     1.4     1.4     1.3     1.3     1.3     1.3     1.3     1.3     1.3
          1.3     1.3     1.3     1.3     1.3     1.3     1.3     1.3     1.3     1.3     1.3     1.3     1.3     1.3     1.3
          1.3     1.3     1.3     1.2     1.2     1.2     1.2     1.2     1.2     1.2     1.2     1.2     1.2     1.2     1.2
          1.2     1.2     1.2     1.2     1.2     1.2     1.2     1.2     1.2     1.2     1.2     1.2     1.2     1.1     1.1
          1.1     1.1     1.1     1.1     1.1     1.1     1.1     1.1     1.1     1.1
  26      1.5     1.5     1.5     1.5     1.5     1.5     1.5     1.5     1.5     1.5     1.5     1.5     1.5     1.4     1.4
          1.4     1.4     1.4     1.4     1.4     1.4     1.4     1.4     1.4     1.4     1.4     1.4     1.4     1.4     1.4
          1.4     1.4     1.4     1.4     1.4     1.4     1.4     1.4     1.3     1.3     1.3     1.3     1.3     1.3     1.3
          1.3     1.3     1.3     1.3     1.3     1.3     1.3     1.3     1.3     1.3     1.3     1.3     1.3     1.3     1.3
          1.3     1.3     1.3     1.2     1.2     1.2     1.2     1.2     1.2     1.2     1.2     1.2     1.2     1.2     1.2
          1.2     1.2     1.2     1.2     1.2     1.2     1.2     1.2     1.2     1.2     1.2     1.2     1.2     1.1     1.1
          1.1     1.1     1.1     1.1     1.1     1.1     1.1     1.1     1.1     1.1
  27      1.5     1.5     1.5     1.5     1.5     1.5     1.5     1.5     1.5     1.5     1.5     1.5     1.5     1.4     1.4
          1.4     1.4     1.4     1.4     1.4     1.4     1.4     1.4     1.4     1.4     1.4     1.4     1.4     1.4     1.4
          1.4     1.4     1.4     1.4     1.4     1.4     1.4     1.4     1.3     1.3     1.3     1.3     1.3     1.3     1.3
          1.3     1.3     1.3     1.3     1.3     1.3     1.3     1.3     1.3     1.3     1.3     1.3     1.3     1.3     1.3
          1.3     1.3     1.3     1.2     1.2     1.2     1.2     1.2     1.2     1.2     1.2     1.2     1.2     1.2     1.2
          1.2     1.2     1.2     1.2     1.2     1.2     1.2     1.2     1.2     1.2     1.2     1.2     1.2     1.1     1.1
          1.1     1.1     1.1     1.1     1.1     1.1     1.1     1.1     1.1     1.1
  28      1.5     1.5     1.5     1.5     1.5     1.5     1.5     1.5     1.5     1.5     1.5     1.5     1.5     1.4     1.4
          1.4     1.4     1.4     1.4     1.4     1.4     1.4     1.4     1.4     1.4     1.4     1.4     1.4     1.4     1.4
          1.4     1.4     1.4     1.4     1.4     1.4     1.4     1.4     1.3     1.3     1.3     1.3     1.3     1.3     1.3
          1.3     1.3     1.3     1.3     1.3     1.3     1.3     1.3     1.3     1.3     1.3     1.3     1.3     1.3     1.3
          1.3     1.3     1.3     1.2     1.2     1.2     1.2     1.2     1.2     1.2     1.2     1.2     1.2     1.2     1.2
          1.2     1.2     1.2     1.2     1.2     1.2     1.2     1.2     1.2     1.2     1.2     1.2     1.2     1.1     1.1
          1.1     1.1     1.1     1.1     1.1     1.1     1.1     1.1     1.1     1.1
  29      1.5     1.5     1.5     1.5     1.5     1.5     1.5     1.5     1.5     1.5     1.5     1.5     1.5     1.4     1.4
          1.4     1.4     1.4     1.4     1.4     1.4     1.4     1.4     1.4     1.4     1.4     1.4     1.4     1.4     1.4
          1.4     1.4     1.4     1.4     1.4     1.4     1.4     1.4     1.3     1.3     1.3     1.3     1.3     1.3     1.3
          1.3     1.3     1.3     1.3     1.3     1.3     1.3     1.3     1.3     1.3     1.3     1.3     1.3     1.3     1.3
          1.3     1.3     1.3     1.2     1.2     1.2     1.2     1.2     1.2     1.2     1.2     1.2     1.2     1.2     1.2
          1.2     1.2     1.2     1.2     1.2     1.2     1.2     1.2     1.2     1.2     1.2     1.2     1.2     1.1     1.1
          1.1     1.1     1.1     1.1     1.1     1.1     1.1     1.1     1.1     1.1
  30      1.5     1.5     1.5     1.5     1.5     1.5     1.5     1.5     1.5     1.5     1.5     1.5     1.5     1.4     1.4
          1.4     1.4     1.4     1.4     1.4     1.4     1.4     1.4     1.4     1.4     1.4     1.4     1.4     1.4     1.4
          1.4     1.4     1.4     1.4     1.4     1.4     1.4     1.4     1.3     1.3     1.3     1.3     1.3     1.3     1.3
          1.3     1.3     1.3     1.3     1.3     1.3     1.3     1.3     1.3     1.3     1.3     1.3     1.3     1.3     1.3
          1.3     1.3     1.3     1.2     1.2     1.2     1.2     1.2     1.2     1.2     1.2     1.2     1.2     1.2     1.2
          1.2     1.2     1.2     1.2     1.2     1.2     1.2     1.2     1.2     1.2     1.2     1.2     1.2     1.1     1.1
          1.1     1.1     1.1     1.1     1.1     1.1     1.1     1.1     1.1     1.1
  31      1.5     1.5     1.5     1.5     1.5     1.5     1.5     1.5     1.5     1.5     1.5     1.5     1.5     1.4     1.4
          1.4     1.4     1.4     1.4     1.4     1.4     1.4     1.4     1.4     1.4     1.4     1.4     1.4     1.4     1.4
          1.4     1.4     1.4     1.4     1.4     1.4     1.4     1.4     1.3     1.3     1.3     1.3     1.3     1.3     1.3
          1.3     1.3     1.3     1.3     1.3     1.3     1.3     1.3     1.3     1.3     1.3     1.3     1.3     1.3     1.3
          1.3     1.3     1.3     1.2     1.2     1.2     1.2     1.2     1.2     1.2     1.2     1.2     1.2     1.2     1.2
          1.2     1.2     1.2     1.2     1.2     1.2     1.2     1.2     1.2     1.2     1.2     1.2     1.2     1.1     1.1
          1.1     1.1     1.1     1.1     1.1     1.1     1.1     1.1     1.1     1.1
  32      1.5     1.5     1.5     1.5     1.5     1.5     1.5     1.5     1.5     1.5     1.5     1.5     1.5     1.4     1.4
          1.4     1.4     1.4     1.4     1.4     1.4     1.4     1.4     1.4     1.4     1.4     1.4     1.4     1.4     1.4
          1.4     1.4     1.4     1.4     1.4     1.4     1.4     1.4     1.3     1.3     1.3     1.3     1.3     1.3     1.3
          1.3     1.3     1.3     1.3     1.3     1.3     1.3     1.3     1.3     1.3     1.3     1.3     1.3     1.3     1.3
          1.3     1.3     1.3     1.2     1.2     1.2     1.2     1.2     1.2     1.2     1.2     1.2     1.2     1.2     1.2
          1.2     1.2     1.2     1.2     1.2     1.2     1.2     1.2     1.2     1.2     1.2     1.2     1.2     1.1     1.1
          1.1     1.1     1.1     1.1     1.1     1.1     1.1     1.1     1.1     1.1
  33      1.5     1.5     1.5     1.5     1.5     1.5     1.5     1.5     1.5     1.5     1.5     1.5     1.5     1.4     1.4
          1.4     1.4     1.4     1.4     1.4     1.4     1.4     1.4     1.4     1.4     1.4     1.4     1.4     1.4     1.4
          1.4     1.4     1.4     1.4     1.4     1.4     1.4     1.4     1.3     1.3     1.3     1.3     1.3     1.3     1.3
          1.3     1.3     1.3     1.3     1.3     1.3     1.3     1.3     1.3     1.3     1.3     1.3     1.3     1.3     1.3
          1.3     1.3     1.3     1.2     1.2     1.2     1.2     1.2     1.2     1.2     1.2     1.2     1.2     1.2     1.2
          1.2     1.2     1.2     1.2     1.2     1.2     1.2     1.2     1.2     1.2     1.2     1.2     1.2     1.1     1.1
          1.1     1.1     1.1     1.1     1.1     1.1     1.1     1.1     1.1     1.1
  34      1.5     1.5     1.5     1.5     1.5     1.5     1.5     1.5     1.5     1.5     1.5     1.5     1.5     1.4     1.4
          1.4     1.4     1.4     1.4     1.4     1.4     1.4     1.4     1.4     1.4     1.4     1.4     1.4     1.4     1.4
          1.4     1.4     1.4     1.4     1.4     1.4     1.4     1.4     1.3     1.3     1.3     1.3     1.3     1.3     1.3
          1.3     1.3     1.3     1.3     1.3     1.3     1.3     1.3     1.3     1.3     1.3     1.3     1.3     1.3     1.3
          1.3     1.3     1.3     1.2     1.2     1.2     1.2     1.2     1.2     1.2     1.2     1.2     1.2     1.2     1.2
          1.2     1.2     1.2     1.2     1.2     1.2     1.2     1.2     1.2     1.2     1.2     1.2     1.2     1.1     1.1
          1.1     1.1     1.1     1.1     1.1     1.1     1.1     1.1     1.1     1.1
  35      1.5     1.5     1.5     1.5     1.5     1.5     1.5     1.5     1.5     1.5     1.5     1.5     1.5     1.4     1.4
          1.4     1.4     1.4     1.4     1.4     1.4     1.4     1.4     1.4     1.4     1.4     1.4     1.4     1.4     1.4
          1.4     1.4     1.4     1.4     1.4     1.4     1.4     1.4     1.3     1.3     1.3     1.3     1.3     1.3     1.3
          1.3     1.3     1.3     1.3     1.3     1.3     1.3     1.3     1.3     1.3     1.3     1.3     1.3     1.3     1.3
          1.3     1.3     1.3     1.2     1.2     1.2     1.2     1.2     1.2     1.2     1.2     1.2     1.2     1.2     1.2
          1.2     1.2     1.2     1.2     1.2     1.2     1.2     1.2     1.2     1.2     1.2     1.2     1.2     1.1     1.1
          1.1     1.1     1.1     1.1     1.1     1.1     1.1     1.1     1.1     1.1
  36      1.5     1.5     1.5     1.5     1.5     1.5     1.5     1.5     1.5     1.5     1.5     1.5     1.5     1.4     1.4
          1.4     1.4     1.4     1.4     1.4     1.4     1.4     1.4     1.4     1.4     1.4     1.4     1.4     1.4     1.4
          1.4     1.4     1.4     1.4     1.4     1.4     1.4     1.4     1.3     1.3     1.3     1.3     1.3     1.3     1.3
          1.3     1.3     1.3     1.3     1.3     1.3     1.3     1.3     1.3     1.3     1.3     1.3     1.3     1.3     1.3
          1.3     1.3     1.3     1.2     1.2     1.2     1.2     1.2     1.2     1.2     1.2     1.2     1.2     1.2     1.2
          1.2     1.2     1.2     1.2     1.2     1.2     1.2     1.2     1.2     1.2     1.2     1.2     1.2     1.1     1.1
          1.1     1.1     1.1     1.1     1.1     1.1     1.1     1.1     1.1     1.1
  37      1.5     1.5     1.5     1.5     1.5     1.5     1.5     1.5     1.5     1.5     1.5     1.5     1.5     1.4     1.4
          1.4     1.4     1.4     1.4     1.4     1.4     1.4     1.4     1.4     1.4     1.4     1.4     1.4     1.4     1.4
          1.4     1.4     1.4     1.4     1.4     1.4     1.4     1.4     1.3     1.3     1.3     1.3     1.3     1.3     1.3
          1.3     1.3     1.3     1.3     1.3     1.3     1.3     1.3     1.3     1.3     1.3     1.3     1.3     1.3     1.3
          1.3     1.3     1.3     1.2     1.2     1.2     1.2     1.2     1.2     1.2     1.2     1.2     1.2     1.2     1.2
          1.2     1.2     1.2     1.2     1.2     1.2     1.2     1.2     1.2     1.2     1.2     1.2     1.2     1.1     1.1
          1.1     1.1     1.1     1.1     1.1     1.1     1.1     1.1     1.1     1.1
  38      1.5     1.5     1.5     1.5     1.5     1.5     1.5     1.5     1.5     1.5     1.5     1.5     1.5     1.4     1.4
          1.4     1.4     1.4     1.4     1.4     1.4     1.4     1.4     1.4     1.4     1.4     1.4     1.4     1.4     1.4
          1.4     1.4     1.4     1.4     1.4     1.4     1.4     1.4     1.3     1.3     1.3     1.3     1.3     1.3     1.3
          1.3     1.3     1.3     1.3     1.3     1.3     1.3     1.3     1.3     1.3     1.3     1.3     1.3     1.3     1.3
          1.3     1.3     1.3     1.2     1.2     1.2     1.2     1.2     1.2     1.2     1.2     1.2     1.2     1.2     1.2
          1.2     1.2     1.2     1.2     1.2     1.2     1.2     1.2     1.2     1.2     1.2     1.2     1.2     1.1     1.1
          1.1     1.1     1.1     1.1     1.1     1.1     1.1     1.1     1.1     1.1
  39      1.5     1.5     1.5     1.5     1.5     1.5     1.5     1.5     1.5     1.5     1.5     1.5     1.5     1.4     1.4
          1.4     1.4     1.4     1.4     1.4     1.4     1.4     1.4     1.4     1.4     1.4     1.4     1.4     1.4     1.4
          1.4     1.4     1.4     1.4     1.4     1.4     1.4     1.4     1.3     1.3     1.3     1.3     1.3     1.3     1.3
          1.3     1.3     1.3     1.3     1.3     1.3     1.3     1.3     1.3     1.3     1.3     1.3     1.3     1.3     1.3
          1.3     1.3     1.3     1.2     1.2     1.2     1.2     1.2     1.2     1.2     1.2     1.2     1.2     1.2     1.2
          1.2     1.2     1.2     1.2     1.2     1.2     1.2     1.2     1.2     1.2     1.2     1.2     1.2     1.1     1.1
          1.1     1.1     1.1     1.1     1.1     1.1     1.1     1.1     1.1     1.1
  40      1.5     1.5     1.5     1.5     1.5     1.5     1.5     1.5     1.5     1.5     1.5     1.5     1.5     1.4     1.4
          1.4     1.4     1.4     1.4     1.4     1.4     1.4     1.4     1.4     1.4     1.4     1.4     1.4     1.4     1.4
          1.4     1.4     1.4     1.4     1.4     1.4     1.4     1.4     1.3     1.3     1.3     1.3     1.3     1.3     1.3
          1.3     1.3     1.3     1.3     1.3     1.3     1.3     1.3     1.3     1.3     1.3     1.3     1.3     1.3     1.3
          1.3     1.3     1.3     1.2     1.2     1.2     1.2     1.2     1.2     1.2     1.2     1.2     1.2     1.2     1.2
          1.2     1.2     1.2     1.2     1.2     1.2     1.2     1.2     1.2     1.2     1.2     1.2     1.2     1.1     1.1
          1.1     1.1     1.1     1.1     1.1     1.1     1.1     1.1     1.1     1.1
  41      1.5     1.5     1.5     1.5     1.5     1.5     1.5     1.5     1.5     1.5     1.5     1.5     1.5     1.4     1.4
          1.4     1.4     1.4     1.4     1.4     1.4     1.4     1.4     1.4     1.4     1.4     1.4     1.4     1.4     1.4
          1.4     1.4     1.4     1.4     1.4     1.4     1.4     1.4     1.3     1.3     1.3     1.3     1.3     1.3     1.3
          1.3     1.3     1.3     1.3     1.3     1.3     1.3     1.3     1.3     1.3     1.3     1.3     1.3     1.3     1.3
          1.3     1.3     1.3     1.2     1.2     1.2     1.2     1.2     1.2     1.2     1.2     1.2     1.2     1.2     1.2
          1.2     1.2     1.2     1.2     1.2     1.2     1.2     1.2     1.2     1.2     1.2     1.2     1.2     1.1     1.1
          1.1     1.1     1.1     1.1     1.1     1.1     1.1     1.1     1.1     1.1
  42      1.5     1.5     1.5     1.5     1.5     1.5     1.5     1.5     1.5     1.5     1.5     1.5     1.5     1.4     1.4
          1.4     1.4     1.4     1.4     1.4     1.4     1.4     1.4     1.4     1.4     1.4     1.4     1.4     1.4     1.4
          1.4     1.4     1.4     1.4     1.4     1.4     1.4     1.4     1.3     1.3     1.3     1.3     1.3     1.3     1.3
          1.3     1.3     1.3     1.3     1.3     1.3     1.3     1.3     1.3     1.3     1.3     1.3     1.3     1.3     1.3
          1.3     1.3     1.3     1.2     1.2     1.2     1.2     1.2     1.2     1.2     1.2     1.2     1.2     1.2     1.2
          1.2     1.2     1.2     1.2     1.2     1.2     1.2     1.2     1.2     1.2     1.2     1.2     1.2     1.1     1.1
          1.1     1.1     1.1     1.1     1.1     1.1     1.1     1.1     1.1     1.1
  43      1.5     1.5     1.5     1.5     1.5     1.5     1.5     1.5     1.5     1.5     1.5     1.5     1.5     1.4     1.4
          1.4     1.4     1.4     1.4     1.4     1.4     1.4     1.4     1.4     1.4     1.4     1.4     1.4     1.4     1.4
          1.4     1.4     1.4     1.4     1.4     1.4     1.4     1.4     1.3     1.3     1.3     1.3     1.3     1.3     1.3
          1.3     1.3     1.3     1.3     1.3     1.3     1.3     1.3     1.3     1.3     1.3     1.3     1.3     1.3     1.3
          1.3     1.3     1.3     1.2     1.2     1.2     1.2     1.2     1.2     1.2     1.2     1.2     1.2     1.2     1.2
          1.2     1.2     1.2     1.2     1.2     1.2     1.2     1.2     1.2     1.2     1.2     1.2     1.2     1.1     1.1
          1.1     1.1     1.1     1.1     1.1     1.1     1.1     1.1     1.1     1.1
  44      1.5     1.5     1.5     1.5     1.5     1.5     1.5     1.5     1.5     1.5     1.5     1.5     1.5     1.4     1.4
          1.4     1.4     1.4     1.4     1.4     1.4     1.4     1.4     1.4     1.4     1.4     1.4     1.4     1.4     1.4
          1.4     1.4     1.4     1.4     1.4     1.4     1.4     1.4     1.3     1.3     1.3     1.3     1.3     1.3     1.3
          1.3     1.3     1.3     1.3     1.3     1.3     1.3     1.3     1.3     1.3     1.3     1.3     1.3     1.3     1.3
          1.3     1.3     1.3     1.2     1.2     1.2     1.2     1.2     1.2     1.2     1.2     1.2     1.2     1.2     1.2
          1.2     1.2     1.2     1.2     1.2     1.2     1.2     1.2     1.2     1.2     1.2     1.2     1.2     1.1     1.1
          1.1     1.1     1.1     1.1     1.1     1.1     1.1     1.1     1.1     1.1
  45      1.5     1.5     1.5     1.5     1.5     1.5     1.5     1.5     1.5     1.5     1.5     1.5     1.5     1.4     1.4
          1.4     1.4     1.4     1.4     1.4     1.4     1.4     1.4     1.4     1.4     1.4     1.4     1.4     1.4     1.4
          1.4     1.4     1.4     1.4     1.4     1.4     1.4     1.4     1.3     1.3     1.3     1.3     1.3     1.3     1.3
          1.3     1.3     1.3     1.3     1.3     1.3     1.3     1.3     1.3     1.3     1.3     1.3     1.3     1.3     1.3
          1.3     1.3     1.3     1.2     1.2     1.2     1.2     1.2     1.2     1.2     1.2     1.2     1.2     1.2     1.2
          1.2     1.2     1.2     1.2     1.2     1.2     1.2     1.2     1.2     1.2     1.2     1.2     1.2     1.1     1.1
          1.1     1.1     1.1     1.1     1.1     1.1     1.1     1.1     1.1     1.1
  46      1.5     1.5     1.5     1.5     1.5     1.5     1.5     1.5     1.5     1.5     1.5     1.5     1.5     1.4     1.4
          1.4     1.4     1.4     1.4     1.4     1.4     1.4     1.4     1.4     1.4     1.4     1.4     1.4     1.4     1.4
          1.4     1.4     1.4     1.4     1.4     1.4     1.4     1.4     1.3     1.3     1.3     1.3     1.3     1.3     1.3
          1.3     1.3     1.3     1.3     1.3     1.3     1.3     1.3     1.3     1.3     1.3     1.3     1.3     1.3     1.3
          1.3     1.3     1.3     1.2     1.2     1.2     1.2     1.2     1.2     1.2     1.2     1.2     1.2     1.2     1.2
          1.2     1.2     1.2     1.2     1.2     1.2     1.2     1.2     1.2     1.2     1.2     1.2     1.2     1.1     1.1
          1.1     1.1     1.1     1.1     1.1     1.1     1.1     1.1     1.1     1.1
  47      1.5     1.5     1.5     1.5     1.5     1.5     1.5     1.5     1.5     1.5     1.5     1.5     1.5     1.4     1.4
          1.4     1.4     1.4     1.4     1.4     1.4     1.4     1.4     1.4     1.4     1.4     1.4     1.4     1.4     1.4
          1.4     1.4     1.4     1.4     1.4     1.4     1.4     1.4     1.3     1.3     1.3     1.3     1.3     1.3     1.3
          1.3     1.3     1.3     1.3     1.3     1.3     1.3     1.3     1.3     1.3     1.3     1.3     1.3     1.3     1.3
          1.3     1.3     1.3     1.2     1.2     1.2     1.2     1.2     1.2     1.2     1.2     1.2     1.2     1.2     1.2
          1.2     1.2     1.2     1.2     1.2     1.2     1.2     1.2     1.2     1.2     1.2     1.2     1.2     1.1     1.1
          1.1     1.1     1.1     1.1     1.1     1.1     1.1     1.1     1.1     1.1
  48      1.5     1.5     1.5     1.5     1.5     1.5     1.5     1.5     1.5     1.5     1.5     1.5     1.5     1.4     1.4
          1.4     1.4     1.4     1.4     1.4     1.4     1.4     1.4     1.4     1.4     1.4     1.4     1.4     1.4     1.4
          1.4     1.4     1.4     1.4     1.4     1.4     1.4     1.4     1.3     1.3     1.3     1.3     1.3     1.3     1.3
          1.3     1.3     1.3     1.3     1.3     1.3     1.3     1.3     1.3     1.3     1.3     1.3     1.3     1.3     1.3
          1.3     1.3     1.3     1.2     1.2     1.2     1.2     1.2     1.2     1.2     1.2     1.2     1.2     1.2     1.2
          1.2     1.2     1.2     1.2     1.2     1.2     1.2     1.2     1.2     1.2     1.2     1.2     1.2     1.1     1.1
          1.1     1.1     1.1     1.1     1.1     1.1     1.1     1.1     1.1     1.1
  49      1.5     1.5     1.5     1.5     1.5     1.5     1.5     1.5     1.5     1.5     1.5     1.5     1.5     1.4     1.4
          1.4     1.4     1.4     1.4     1.4     1.4     1.4     1.4     1.4     1.4     1.4     1.4     1.4     1.4     1.4
          1.4     1.4     1.4     1.4     1.4     1.4     1.4     1.4     1.3     1.3     1.3     1.3     1.3     1.3     1.3
          1.3     1.3     1.3     1.3     1.3     1.3     1.3     1.3     1.3     1.3     1.3     1.3     1.3     1.3     1.3
          1.3     1.3     1.3     1.2     1.2     1.2     1.2     1.2     1.2     1.2     1.2     1.2     1.2     1.2     1.2
          1.2     1.2     1.2     1.2     1.2     1.2     1.2     1.2     1.2     1.2     1.2     1.2     1.2     1.1     1.1
          1.1     1.1     1.1     1.1     1.1     1.1     1.1     1.1     1.1     1.1
  50      1.5     1.5     1.5     1.5     1.5     1.5     1.5     1.5     1.5     1.5     1.5     1.5     1.5     1.4     1.4
          1.4     1.4     1.4     1.4     1.4     1.4     1.4     1.4     1.4     1.4     1.4     1.4     1.4     1.4     1.4
          1.4     1.4     1.4     1.4     1.4     1.4     1.4     1.4     1.3     1.3     1.3     1.3     1.3     1.3     1.3
          1.3     1.3     1.3     1.3     1.3     1.3     1.3     1.3     1.3     1.3     1.3     1.3     1.3     1.3     1.3
          1.3     1.3     1.3     1.2     1.2     1.2     1.2     1.2     1.2     1.2     1.2     1.2     1.2     1.2     1.2
          1.2     1.2     1.2     1.2     1.2     1.2     1.2     1.2     1.2     1.2     1.2     1.2     1.2     1.1     1.1
          1.1     1.1     1.1     1.1     1.1     1.1     1.1     1.1     1.1     1.1

 OUTPUT CONTROL IS SPECIFIED ONLY AT TIME STEPS FOR WHICH OUTPUT IS DESIRED
 COMPACT CELL-BY-CELL BUDGET FILES WILL BE WRITTEN
 AUXILIARY DATA WILL BE SAVED IN CELL-BY-CELL BUDGET FILES
 IBOUND WILL BE SAVED ON UNIT   52
 HEAD PRINT FORMAT CODE IS  20    DRAWDOWN PRINT FORMAT CODE IS   0
 HEADS WILL BE SAVED ON UNIT   51    DRAWDOWNS WILL BE SAVED ON UNIT    0

 LPF -- LAYER-PROPERTY FLOW PACKAGE, VERSION 7, 5/2/2005
         INPUT READ FROM UNIT   11
 # LPF package inputs
 CELL-BY-CELL FLOWS WILL BE SAVED ON UNIT   34
 HEAD AT CELLS THAT CONVERT TO DRY=  1.00000E+30
 No named parameters

   LAYER FLAGS:
 LAYER       LAYTYP        LAYAVG         CHANI        LAYVKA        LAYWET
 ---------------------------------------------------------------------------
    1             1             0     1.000E+00             0             0
    2             0             0     1.000E+00             0             0
    3             0             0     1.000E+00             0             0
    4             0             0     1.000E+00             0             0
    5             0             0     1.000E+00             0             0
    6             0             0     1.000E+00             0             0
    7             0             0     1.000E+00             0             0
    8             0             0     1.000E+00             0             0
    9             0             0     1.000E+00             0             0
   10             0             0     1.000E+00             0             0
   11             0             0     1.000E+00             0             0
   12             0             0     1.000E+00             0             0
   13             0             0     1.000E+00             0             0
   14             0             0     1.000E+00             0             0
   15             0             0     1.000E+00             0             0
   16             0             0     1.000E+00             0             0
   17             0             0     1.000E+00             0             0
   18             0             0     1.000E+00             0             0
   19             0             0     1.000E+00             0             0
   20             0             0     1.000E+00             0             0
   21             0             0     1.000E+00             0             0
   22             0             0     1.000E+00             0             0
   23             0             0     1.000E+00             0             0
   24             0             0     1.000E+00             0             0
   25             0             0     1.000E+00             0             0
   26             0             0     1.000E+00             0             0
   27             0             0     1.000E+00             0             0
   28             0             0     1.000E+00             0             0
   29             0             0     1.000E+00             0             0
   30             0             0     1.000E+00             0             0
   31             0             0     1.000E+00             0             0
   32             0             0     1.000E+00             0             0
   33             0             0     1.000E+00             0             0
   34             0             0     1.000E+00             0             0
   35             0             0     1.000E+00             0             0
   36             0             0     1.000E+00             0             0
   37             0             0     1.000E+00             0             0
   38             0             0     1.000E+00             0             0
   39             0             0     1.000E+00             0             0
   40             0             0     1.000E+00             0             0
   41             0             0     1.000E+00             0             0
   42             0             0     1.000E+00             0             0
   43             0             0     1.000E+00             0             0
   44             0             0     1.000E+00             0             0
   45             0             0     1.000E+00             0             0
   46             0             0     1.000E+00             0             0
   47             0             0     1.000E+00             0             0
   48             0             0     1.000E+00             0             0
   49             0             0     1.000E+00             0             0
   50             0             0     1.000E+00             0             0

   INTERPRETATION OF LAYER FLAGS:
                        INTERBLOCK     HORIZONTAL    DATA IN
         LAYER TYPE   TRANSMISSIVITY   ANISOTROPY   ARRAY VKA   WETTABILITY
 LAYER      (LAYTYP)      (LAYAVG)       (CHANI)      (LAYVKA)      (LAYWET)
 ---------------------------------------------------------------------------
    1   CONVERTIBLE      HARMONIC     1.000E+00    VERTICAL K  NON-WETTABLE
    2      CONFINED      HARMONIC     1.000E+00    VERTICAL K  NON-WETTABLE
    3      CONFINED      HARMONIC     1.000E+00    VERTICAL K  NON-WETTABLE
    4      CONFINED      HARMONIC     1.000E+00    VERTICAL K  NON-WETTABLE
    5      CONFINED      HARMONIC     1.000E+00    VERTICAL K  NON-WETTABLE
    6      CONFINED      HARMONIC     1.000E+00    VERTICAL K  NON-WETTABLE
    7      CONFINED      HARMONIC     1.000E+00    VERTICAL K  NON-WETTABLE
    8      CONFINED      HARMONIC     1.000E+00    VERTICAL K  NON-WETTABLE
    9      CONFINED      HARMONIC     1.000E+00    VERTICAL K  NON-WETTABLE
   10      CONFINED      HARMONIC     1.000E+00    VERTICAL K  NON-WETTABLE
   11      CONFINED      HARMONIC     1.000E+00    VERTICAL K  NON-WETTABLE
   12      CONFINED      HARMONIC     1.000E+00    VERTICAL K  NON-WETTABLE
   13      CONFINED      HARMONIC     1.000E+00    VERTICAL K  NON-WETTABLE
   14      CONFINED      HARMONIC     1.000E+00    VERTICAL K  NON-WETTABLE
   15      CONFINED      HARMONIC     1.000E+00    VERTICAL K  NON-WETTABLE
   16      CONFINED      HARMONIC     1.000E+00    VERTICAL K  NON-WETTABLE
   17      CONFINED      HARMONIC     1.000E+00    VERTICAL K  NON-WETTABLE
   18      CONFINED      HARMONIC     1.000E+00    VERTICAL K  NON-WETTABLE
   19      CONFINED      HARMONIC     1.000E+00    VERTICAL K  NON-WETTABLE
   20      CONFINED      HARMONIC     1.000E+00    VERTICAL K  NON-WETTABLE
   21      CONFINED      HARMONIC     1.000E+00    VERTICAL K  NON-WETTABLE
   22      CONFINED      HARMONIC     1.000E+00    VERTICAL K  NON-WETTABLE
   23      CONFINED      HARMONIC     1.000E+00    VERTICAL K  NON-WETTABLE
   24      CONFINED      HARMONIC     1.000E+00    VERTICAL K  NON-WETTABLE
   25      CONFINED      HARMONIC     1.000E+00    VERTICAL K  NON-WETTABLE
   26      CONFINED      HARMONIC     1.000E+00    VERTICAL K  NON-WETTABLE
   27      CONFINED      HARMONIC     1.000E+00    VERTICAL K  NON-WETTABLE
   28      CONFINED      HARMONIC     1.000E+00    VERTICAL K  NON-WETTABLE
   29      CONFINED      HARMONIC     1.000E+00    VERTICAL K  NON-WETTABLE
   30      CONFINED      HARMONIC     1.000E+00    VERTICAL K  NON-WETTABLE
   31      CONFINED      HARMONIC     1.000E+00    VERTICAL K  NON-WETTABLE
   32      CONFINED      HARMONIC     1.000E+00    VERTICAL K  NON-WETTABLE
   33      CONFINED      HARMONIC     1.000E+00    VERTICAL K  NON-WETTABLE
   34      CONFINED      HARMONIC     1.000E+00    VERTICAL K  NON-WETTABLE
   35      CONFINED      HARMONIC     1.000E+00    VERTICAL K  NON-WETTABLE
   36      CONFINED      HARMONIC     1.000E+00    VERTICAL K  NON-WETTABLE
   37      CONFINED      HARMONIC     1.000E+00    VERTICAL K  NON-WETTABLE
   38      CONFINED      HARMONIC     1.000E+00    VERTICAL K  NON-WETTABLE
   39      CONFINED      HARMONIC     1.000E+00    VERTICAL K  NON-WETTABLE
   40      CONFINED      HARMONIC     1.000E+00    VERTICAL K  NON-WETTABLE
   41      CONFINED      HARMONIC     1.000E+00    VERTICAL K  NON-WETTABLE
   42      CONFINED      HARMONIC     1.000E+00    VERTICAL K  NON-WETTABLE
   43      CONFINED      HARMONIC     1.000E+00    VERTICAL K  NON-WETTABLE
   44      CONFINED      HARMONIC     1.000E+00    VERTICAL K  NON-WETTABLE
   45      CONFINED      HARMONIC     1.000E+00    VERTICAL K  NON-WETTABLE
[...]
        1.479       1.477       1.475       1.473       1.471       1.469    
        1.466       1.464       1.461       1.459       1.456       1.453    
        1.450       1.448       1.445       1.441       1.438       1.435    
        1.432       1.428       1.425       1.421       1.418       1.414    
        1.410       1.406       1.402       1.398       1.394       1.390    
        1.385       1.381       1.376       1.372       1.367       1.362    
        1.357       1.353       1.348       1.342       1.337       1.332    
        1.327       1.321       1.316       1.310       1.305       1.299    
        1.293       1.287       1.281       1.275       1.269       1.263    
        1.256       1.250       1.243       1.237       1.230       1.223    
        1.216       1.210       1.203       1.195       1.188       1.181    
        1.174       1.166       1.159       1.151       1.144       1.136    
        1.128       1.120       1.112       1.104    
  38    1.500       1.500       1.500       1.500       1.500       1.500    
        1.499       1.499       1.498       1.498       1.497       1.496    
        1.495       1.495       1.494       1.493       1.491       1.490    
        1.489       1.487       1.486       1.484       1.483       1.481    
        1.479       1.477       1.475       1.473       1.471       1.469    
        1.466       1.464       1.461       1.459       1.456       1.453    
        1.450       1.448       1.445       1.441       1.438       1.435    
        1.432       1.428       1.425       1.421       1.418       1.414    
        1.410       1.406       1.402       1.398       1.394       1.390    
        1.385       1.381       1.376       1.372       1.367       1.362    
        1.357       1.353       1.348       1.342       1.337       1.332    
        1.327       1.321       1.316       1.310       1.305       1.299    
        1.293       1.287       1.281       1.275       1.269       1.263    
        1.256       1.250       1.243       1.237       1.230       1.223    
        1.216       1.210       1.203       1.195       1.188       1.181    
        1.174       1.166       1.159       1.151       1.144       1.136    
        1.128       1.120       1.112       1.104    
  39    1.500       1.500       1.500       1.500       1.500       1.500    
        1.499       1.499       1.498       1.498       1.497       1.496    
        1.495       1.495       1.494       1.493       1.491       1.490    
        1.489       1.487       1.486       1.484       1.483       1.481    
        1.479       1.477       1.475       1.473       1.471       1.469    
        1.466       1.464       1.461       1.459       1.456       1.453    
        1.450       1.448       1.445       1.441       1.438       1.435    
        1.432       1.428       1.425       1.421       1.418       1.414    
        1.410       1.406       1.402       1.398       1.394       1.390    
        1.385       1.381       1.376       1.372       1.367       1.362    
        1.357       1.353       1.348       1.342       1.337       1.332    
        1.327       1.321       1.316       1.310       1.305       1.299    
        1.293       1.287       1.281       1.275       1.269       1.263    
        1.256       1.250       1.243       1.237       1.230       1.223    
        1.216       1.210       1.203       1.195       1.188       1.181    
        1.174       1.166       1.159       1.151       1.144       1.136    
        1.128       1.120       1.112       1.104    
  40    1.500       1.500       1.500       1.500       1.500       1.500    
        1.499       1.499       1.498       1.498       1.497       1.496    
        1.495       1.495       1.494       1.493       1.491       1.490    
        1.489       1.487       1.486       1.484       1.483       1.481    
        1.479       1.477       1.475       1.473       1.471       1.469    
        1.466       1.464       1.461       1.459       1.456       1.453    
        1.450       1.448       1.445       1.441       1.438       1.435    
        1.432       1.428       1.425       1.421       1.418       1.414    
        1.410       1.406       1.402       1.398       1.394       1.390    
        1.385       1.381       1.376       1.372       1.367       1.362    
        1.357       1.353       1.348       1.342       1.337       1.332    
        1.327       1.321       1.316       1.310       1.305       1.299    
        1.293       1.287       1.281       1.275       1.269       1.263    
        1.256       1.250       1.243       1.237       1.230       1.223    
        1.216       1.210       1.203       1.195       1.188       1.181    
        1.174       1.166       1.159       1.151       1.144       1.136    
        1.128       1.120       1.112       1.104    
  41    1.500       1.500       1.500       1.500       1.500       1.500    
        1.499       1.499       1.498       1.498       1.497       1.496    
        1.495       1.495       1.494       1.492       1.491       1.490    
        1.489       1.487       1.486       1.484       1.483       1.481    
        1.479       1.477       1.475       1.473       1.471       1.469    
        1.466       1.464       1.461       1.459       1.456       1.453    
        1.450       1.448       1.445       1.441       1.438       1.435    
        1.432       1.428       1.425       1.421       1.418       1.414    
        1.410       1.406       1.402       1.398       1.394       1.390    
        1.385       1.381       1.376       1.372       1.367       1.362    
        1.357       1.353       1.348       1.342       1.337       1.332    
        1.327       1.321       1.316       1.310       1.305       1.299    
        1.293       1.287       1.281       1.275       1.269       1.263    
        1.256       1.250       1.243       1.237       1.230       1.223    
        1.216       1.210       1.203       1.195       1.188       1.181    
        1.174       1.166       1.159       1.151       1.144       1.136    
        1.128       1.120       1.112       1.104    
  42    1.500       1.500       1.500       1.500       1.500       1.500    
        1.499       1.499       1.498       1.498       1.497       1.496    
        1.495       1.495       1.494       1.492       1.491       1.490    
        1.489       1.487       1.486       1.484       1.483       1.481    
        1.479       1.477       1.475       1.473       1.471       1.469    
        1.466       1.464       1.461       1.459       1.456       1.453    
        1.450       1.448       1.445       1.441       1.438       1.435    
        1.432       1.428       1.425       1.421       1.418       1.414    
        1.410       1.406       1.402       1.398       1.394       1.390    
        1.385       1.381       1.376       1.372       1.367       1.362    
        1.357       1.353       1.348       1.342       1.337       1.332    
        1.327       1.321       1.316       1.310       1.305       1.299    
        1.293       1.287       1.281       1.275       1.269       1.263    
        1.256       1.250       1.243       1.237       1.230       1.223    
        1.216       1.210       1.203       1.195       1.188       1.181    
        1.174       1.166       1.159       1.151       1.144       1.136    
        1.128       1.120       1.112       1.104    
  43    1.500       1.500       1.500       1.500       1.500       1.500    
        1.499       1.499       1.498       1.498       1.497       1.496    
        1.495       1.495       1.494       1.492       1.491       1.490    
        1.489       1.487       1.486       1.484       1.483       1.481    
        1.479       1.477       1.475       1.473       1.471       1.469    
        1.466       1.464       1.461       1.459       1.456       1.453    
        1.450       1.448       1.445       1.441       1.438       1.435    
        1.432       1.428       1.425       1.421       1.418       1.414    
        1.410       1.406       1.402       1.398       1.394       1.390    
        1.385       1.381       1.376       1.372       1.367       1.362    
        1.357       1.353       1.348       1.342       1.337       1.332    
        1.327       1.321       1.316       1.310       1.305       1.299    
        1.293       1.287       1.281       1.275       1.269       1.263    
        1.256       1.250       1.243       1.237       1.230       1.223    
        1.216       1.210       1.203       1.195       1.188       1.181    
        1.174       1.166       1.159       1.151       1.144       1.136    
        1.128       1.120       1.112       1.104    
  44    1.500       1.500       1.500       1.500       1.500       1.500    
        1.499       1.499       1.498       1.498       1.497       1.496    
        1.495       1.495       1.494       1.492       1.491       1.490    
        1.489       1.487       1.486       1.484       1.483       1.481    
        1.479       1.477       1.475       1.473       1.471       1.469    
        1.466       1.464       1.461       1.459       1.456       1.453    
        1.450       1.448       1.445       1.441       1.438       1.435    
        1.432       1.428       1.425       1.421       1.418       1.414    
        1.410       1.406       1.402       1.398       1.394       1.390    
        1.385       1.381       1.376       1.372       1.367       1.362    
        1.357       1.353       1.348       1.342       1.337       1.332    
        1.327       1.321       1.316       1.310       1.305       1.299    
        1.293       1.287       1.281       1.275       1.269       1.263    
        1.256       1.250       1.243       1.237       1.230       1.223    
        1.216       1.210       1.203       1.195       1.188       1.181    
        1.174       1.166       1.159       1.151       1.144       1.136    
        1.128       1.120       1.112       1.104    
  45    1.500       1.500       1.500       1.500       1.500       1.500    
        1.499       1.499       1.498       1.498       1.497       1.496    
        1.495       1.495       1.494       1.492       1.491       1.490    
        1.489       1.487       1.486       1.484       1.483       1.481    
        1.479       1.477       1.475       1.473       1.471       1.469    
        1.466       1.464       1.461       1.459       1.456       1.453    
        1.450       1.448       1.445       1.441       1.438       1.435    
        1.432       1.428       1.425       1.421       1.418       1.414    
        1.410       1.406       1.402       1.398       1.394       1.390    
        1.385       1.381       1.376       1.372       1.367       1.362    
        1.357       1.353       1.348       1.342       1.337       1.332    
        1.327       1.321       1.316       1.310       1.305       1.299    
        1.293       1.287       1.281       1.275       1.269       1.263    
        1.256       1.250       1.243       1.237       1.230       1.223    
        1.216       1.210       1.203       1.195       1.188       1.181    
        1.174       1.166       1.159       1.151       1.144       1.136    
        1.128       1.120       1.112       1.104    
  46    1.500       1.500       1.500       1.500       1.500       1.500    
        1.499       1.499       1.498       1.498       1.497       1.496    
        1.495       1.495       1.494       1.492       1.491       1.490    
        1.489       1.487       1.486       1.484       1.483       1.481    
        1.479       1.477       1.475       1.473       1.471       1.469    
        1.466       1.464       1.461       1.459       1.456       1.453    
        1.450       1.448       1.445       1.441       1.438       1.435    
        1.432       1.428       1.425       1.421       1.418       1.414    
        1.410       1.406       1.402       1.398       1.394       1.390    
        1.385       1.381       1.376       1.372       1.367       1.362    
        1.357       1.353       1.348       1.342       1.337       1.332    
        1.327       1.321       1.316       1.310       1.305       1.299    
        1.293       1.287       1.281       1.275       1.269       1.263    
        1.256       1.250       1.243       1.237       1.230       1.223    
        1.216       1.210       1.203       1.195       1.188       1.181    
        1.174       1.166       1.159       1.151       1.144       1.136    
        1.128       1.120       1.112       1.104    
  47    1.500       1.500       1.500       1.500       1.500       1.500    
        1.499       1.499       1.498       1.498       1.497       1.496    
        1.495       1.495       1.494       1.492       1.491       1.490    
        1.489       1.487       1.486       1.484       1.483       1.481    
        1.479       1.477       1.475       1.473       1.471       1.469    
        1.466       1.464       1.461       1.459       1.456       1.453    
        1.450       1.448       1.445       1.441       1.438       1.435    
        1.432       1.428       1.425       1.421       1.418       1.414    
        1.410       1.406       1.402       1.398       1.394       1.390    
        1.385       1.381       1.376       1.372       1.367       1.362    
        1.357       1.353       1.348       1.342       1.337       1.332    
        1.327       1.321       1.316       1.310       1.305       1.299    
        1.293       1.287       1.281       1.275       1.269       1.263    
        1.256       1.250       1.243       1.237       1.230       1.223    
        1.216       1.210       1.203       1.195       1.188       1.181    
        1.174       1.166       1.159       1.151       1.144       1.136    
        1.128       1.120       1.112       1.104    
  48    1.500       1.500       1.500       1.500       1.500       1.500    
        1.499       1.499       1.498       1.498       1.497       1.496    
        1.495       1.495       1.494       1.492       1.491       1.490    
        1.489       1.487       1.486       1.484       1.483       1.481    
        1.479       1.477       1.475       1.473       1.471       1.469    
        1.466       1.464       1.461       1.459       1.456       1.453    
        1.450       1.448       1.445       1.441       1.438       1.435    
        1.432       1.428       1.425       1.421       1.418       1.414    
        1.410       1.406       1.402       1.398       1.394       1.390    
        1.385       1.381       1.376       1.372       1.367       1.362    
        1.357       1.353       1.348       1.342       1.337       1.332    
        1.327       1.321       1.316       1.310       1.305       1.299    
        1.293       1.287       1.281       1.275       1.269       1.263    
        1.256       1.250       1.243       1.237       1.230       1.223    
        1.216       1.210       1.203       1.195       1.188       1.181    
        1.174       1.166       1.159       1.151       1.144       1.136    
        1.128       1.120       1.112       1.104    
  49    1.500       1.500       1.500       1.500       1.500       1.500    
        1.499       1.499       1.498       1.498       1.497       1.496    
        1.495       1.495       1.494       1.492       1.491       1.490    
        1.489       1.487       1.486       1.484       1.483       1.481    
        1.479       1.477       1.475       1.473       1.471       1.469    
        1.466       1.464       1.461       1.459       1.456       1.453    
        1.450       1.448       1.445       1.441       1.438       1.435    
        1.432       1.428       1.425       1.421       1.418       1.414    
        1.410       1.406       1.402       1.398       1.394       1.390    
        1.385       1.381       1.376       1.372       1.367       1.362    
        1.357       1.353       1.348       1.342       1.337       1.332    
        1.327       1.321       1.316       1.310       1.305       1.299    
        1.293       1.287       1.281       1.275       1.269       1.263    
        1.256       1.250       1.243       1.237       1.230       1.223    
        1.216       1.210       1.203       1.195       1.188       1.181    
        1.174       1.166       1.159       1.151       1.144       1.136    
        1.128       1.120       1.112       1.104    
  50   1000.0       1.500       1.500       1.500       1.500       1.500    
        1.499       1.499       1.498       1.498       1.497       1.496    
        1.495       1.495       1.494       1.492       1.491       1.490    
        1.489       1.487       1.486       1.484       1.483       1.481    
        1.479       1.477       1.475       1.473       1.471       1.469    
        1.466       1.464       1.461       1.459       1.456       1.453    
        1.450       1.448       1.445       1.441       1.438       1.435    
        1.432       1.428       1.425       1.421       1.418       1.414    
        1.410       1.406       1.402       1.398       1.394       1.390    
        1.385       1.381       1.376       1.372       1.367       1.362    
        1.357       1.353       1.348       1.342       1.337       1.332    
        1.327       1.321       1.316       1.310       1.305       1.299    
        1.293       1.287       1.281       1.275       1.269       1.263    
        1.256       1.250       1.243       1.237       1.230       1.223    
        1.216       1.210       1.203       1.195       1.188       1.181    
        1.174       1.166       1.159       1.151       1.144       1.136    
        1.128       1.120       1.112       1.104    

 HEAD WILL BE SAVED ON UNIT   51 AT END OF TIME STEP    1, STRESS PERIOD    1

 IBOUND WILL BE SAVED ON UNIT   52 AT END OF TIME STEP    1, STRESS PERIOD    1
1
  VOLUMETRIC BUDGET FOR ENTIRE MODEL AT END OF TIME STEP    1, STRESS PERIOD   1
  ------------------------------------------------------------------------------

     CUMULATIVE VOLUMES      L**3       RATES FOR THIS TIME STEP      L**3/T
     ------------------                 ------------------------

           IN:                                      IN:
           ---                                      ---
             STORAGE =           0.0000               STORAGE =           0.0000
       CONSTANT HEAD =           0.0000         CONSTANT HEAD =           0.0000
            RECHARGE =       5.0000E-02              RECHARGE =       5.0000E-02

            TOTAL IN =       5.0000E-02              TOTAL IN =       5.0000E-02

          OUT:                                     OUT:
          ----                                     ----
             STORAGE =           0.0000               STORAGE =           0.0000
       CONSTANT HEAD =       4.9907E-02         CONSTANT HEAD =       4.9907E-02
            RECHARGE =           0.0000              RECHARGE =           0.0000

           TOTAL OUT =       4.9907E-02             TOTAL OUT =       4.9907E-02

            IN - OUT =       9.2559E-05              IN - OUT =       9.2559E-05

 PERCENT DISCREPANCY =           0.19     PERCENT DISCREPANCY =           0.19






         TIME SUMMARY AT END OF TIME STEP    1 IN STRESS PERIOD    1
                    SECONDS     MINUTES      HOURS       DAYS        YEARS
                    -----------------------------------------------------------
   TIME STEP LENGTH  86400.      1440.0      24.000      1.0000     2.73785E-03
 STRESS PERIOD TIME  86400.      1440.0      24.000      1.0000     2.73785E-03
         TOTAL TIME  86400.      1440.0      24.000      1.0000     2.73785E-03
1

 Run end date and time (yyyy/mm/dd hh:mm:ss): 2024/10/25 12:04:56
 Elapsed run time:  0.067 Seconds

